1

   Abaqus 2020                                  Date 31-May-2021   Time 02:03:01
   For use by PURDUE UNIVERSITY under license from Dassault Systemes or its subsidiary.



                         The Abaqus Software is a product of:

                           Dassault Systemes SIMULIA Corp.
                           1301 Atwood Avenue, Suite 101W
                              Johnston, RI 02919, USA
 


                   The Abaqus Software is available only under license
                   from Dassault Systemes or its subsidiary and may be
                   used or reproduced only in accordance with the terms
                   of such license.
 
                          On machine gilbreth-fe01.rcac.purdue.edu 
                          you are authorized to run
                          Abaqus/Standard until 30-Jun-2021

                          Your site id is: 100000000002199 


 
                    For assistance or any other information you may
                    obtain contact information for your local office
                    from the world wide web at:

                      http://www.3ds.com/products/simulia/locations/

 
                * * * * * * * * * * * * * * * * * * * * * * * * * * * * * * 
                *                                                         * 
                *                   *****************                     * 
                *                   *  N O T I C E  *                     * 
                *                   *****************                     * 
                *                                                         * 
                *                                                         * 
                *                       Abaqus 2020                       * 
                *                                                         * 
                *          BUILD ID: 2019_09_13-13.49.31 163176           * 
                *                                                         * 
                *                                                         * 
                *  Please make sure you are using                         * 
                *  release Abaqus 2020 manuals                            * 
                *  plus the notes accompanying this release.              * 
                *                                                         * 
                *                                                         * 
                *                                                         * 
                *                                                         * 
                *                                                         * 
                *   This program may not be used for commercial purposes  * 
                *           without payment of a commercial fee.          * 
                *                                                         * 
                * * * * * * * * * * * * * * * * * * * * * * * * * * * * * * 


 



     PROCESSING PART, INSTANCE, AND ASSEMBLY INFORMATION
   *******************************************************


     END PROCESSING PART, INSTANCE, AND ASSEMBLY INFORMATION
   ***********************************************************




     OPTIONS BEING PROCESSED
   ***************************


  *Heading
  *Node
  *Element, type=C3D8
  *Nset, nset=ASSEMBLY_PART-1-1__PICKEDSET18
  *Elset, elset=ASSEMBLY_PART-1-1__PICKEDSET18
  *Node
  *Element, type=C3D8R
  *Nset, nset=ASSEMBLY_INFLATOR_FACE-2__PICKEDSET2
  *Elset, elset=ASSEMBLY_INFLATOR_FACE-2__PICKEDSET2
  *Node
  *Element, type=C3D8R
  *Nset, nset=ASSEMBLY_INFLATOR_EDGES-1__PICKEDSET2
  *Elset, elset=ASSEMBLY_INFLATOR_EDGES-1__PICKEDSET2
  *Node
  *Nset, nset=ASSEMBLY_SET-2
  *Nset, nset=ASSEMBLY__PICKEDSET31
  *Nset, nset=ASSEMBLY__PICKEDSET47
  *Nset, nset=ASSEMBLY__PICKEDSET48
  *Elset, elset=ASSEMBLY_SET-2
  *Elset, elset=ASSEMBLY__CAVITY_SURF_S2
  *Elset, elset=ASSEMBLY__CAVITY_SURF_S3
  *Elset, elset=ASSEMBLY__CAVITY_SURF_S4
  *Elset, elset=ASSEMBLY__CAVITY_SURF_S5
  *Elset, elset=ASSEMBLY__CAVITY_SURF_S6
  *Elset, elset=ASSEMBLY__PICKEDSET48
  *Elset, elset=ASSEMBLY___PICKEDSURF32_S2
  *Elset, elset=ASSEMBLY___PICKEDSURF33_S2
  *Elset, elset=ASSEMBLY___PICKEDSURF34_S3
  *Elset, elset=ASSEMBLY___PICKEDSURF35_S1
  *material, name=SAMPLE_MAT
  *density
  *elastic
  *material, name=SAMPLE_MAT_2
  *density
  *elastic
  *material, name=UMAT
  *density, dependencies=1

 ***WARNING: DENSITY HAS BEEN DEFINED AS A FUNCTION OF TEMPERATURE AND/OR FIELD 
             VARIABLES. FOR ALL ELEMENTS EXCEPT ACOUSTIC, HEAT TRANSFER, 
             COUPLED TEMPERATURE-DISPLACEMENT AND COUPLED THERMAL-ELECTRICAL 
             ELEMENTS THE DENSITY IS A FUNCTION OF THE INITIAL VALUES OF 
             TEMPERATURE AND FIELD VARIABLES. IT WILL NOT BE UPDATED IF 
             TEMPERATURES AND FIELD VARIABLES CHANGE DURING THE ANALYSIS.
  *depvar
  *userdefinedfield
  *usermaterial, constants=133
  *fluidbehavior, name=FLUID_PROP
  *fluiddensity
  *fluidbulkmodulus
  *orientation, name=ASSEMBLY_PART-1-1_ORI-1
  *orientation, name=ASSEMBLY_INFLATOR_FACE-2_ORI-1
  *orientation, name=ASSEMBLY_INFLATOR_EDGES-1_ORI-1
  *solidsection, elset=ASSEMBLY_PART-1-1__PICKEDSET18, orientation=ASSEMBLY_PART-1-1_ORI-1, material=UMAT
  *solidsection, elset=ASSEMBLY_INFLATOR_FACE-2__PICKEDSET2, orientation=ASSEMBLY_INFLATOR_FACE-2_ORI-1, material=SAMPLE_MAT_2
  *solidsection, elset=ASSEMBLY_INFLATOR_EDGES-1__PICKEDSET2, orientation=ASSEMBLY_INFLATOR_EDGES-1_ORI-1, material=SAMPLE_MAT_2
  *solidsection, elset=ASSEMBLY_PART-1-1__PICKEDSET18, orientation=ASSEMBLY_PART-1-1_ORI-1, material=UMAT
  *solidsection, elset=ASSEMBLY_INFLATOR_FACE-2__PICKEDSET2, orientation=ASSEMBLY_INFLATOR_FACE-2_ORI-1, material=SAMPLE_MAT_2
  *solidsection, elset=ASSEMBLY_INFLATOR_EDGES-1__PICKEDSET2, orientation=ASSEMBLY_INFLATOR_EDGES-1_ORI-1, material=SAMPLE_MAT_2
  *rigidbody, refnode=ASSEMBLY__PICKEDSET47, elset=ASSEMBLY__PICKEDSET48
  *tie, name=ASSEMBLY_TIE_1, adjust=YES
  *tie, name=ASSEMBLY_TIE_2, adjust=YES
  *surface, type=ELEMENT, name=ASSEMBLY_CAVITY_SURF
  *surface, type=ELEMENT, name=ASSEMBLY__PICKEDSURF32
  *surface, type=ELEMENT, name=ASSEMBLY__PICKEDSURF33
  *surface, type=ELEMENT, name=ASSEMBLY__PICKEDSURF34
  *surface, type=ELEMENT, name=ASSEMBLY__PICKEDSURF35
  *rigidbody, refnode=ASSEMBLY__PICKEDSET47, elset=ASSEMBLY__PICKEDSET48
  *rigidbody, refnode=ASSEMBLY__PICKEDSET47, elset=ASSEMBLY__PICKEDSET48
  *rigidbody, refnode=ASSEMBLY__PICKEDSET47, elset=ASSEMBLY__PICKEDSET48
  *tie, name=ASSEMBLY_TIE_1, adjust=YES
  *tie, name=ASSEMBLY_TIE_2, adjust=YES
  *surface, type=ELEMENT, name=ASSEMBLY_CAVITY_SURF
  *surface, type=ELEMENT, name=ASSEMBLY__PICKEDSURF32
  *surface, type=ELEMENT, name=ASSEMBLY__PICKEDSURF33
  *surface, type=ELEMENT, name=ASSEMBLY__PICKEDSURF34
  *surface, type=ELEMENT, name=ASSEMBLY__PICKEDSURF35
  *surface, type=ELEMENT, name=ASSEMBLY_CAVITY_SURF
  *surface, type=ELEMENT, name=ASSEMBLY__PICKEDSURF32
  *surface, type=ELEMENT, name=ASSEMBLY__PICKEDSURF33
  *surface, type=ELEMENT, name=ASSEMBLY__PICKEDSURF34
  *surface, type=ELEMENT, name=ASSEMBLY__PICKEDSURF35
  *tie, name=ASSEMBLY_TIE_1, adjust=YES

 ***WARNING: OVERCONSTRAINT CHECKS: THE *TIE PAIR BETWEEN SURFACES 
             ASSEMBLY__PICKEDSURF33 AND ASSEMBLY__PICKEDSURF32 ATTEMPTS TO TIE 
             ONE DEFORMABLE AND ONE RIGID BODY. SINCE THE *TIE SLAVE SURFACE 
             BELONGS IN PART OR ENTIRELY TO THE RIGID BODY, THE NODES ON THIS 
             SURFACE WOULD BE OVERCONSTRAINED  BY THE *RIGID BODY AND *TIE 
             COMBINATION. THE SLAVE AND MASTER ARE SWITCHED SO THAT 
             OVERCONSTRAINTS ARE AVOIDED.
  *tie, name=ASSEMBLY_TIE_2, adjust=YES
  *rigidbody, refnode=ASSEMBLY__PICKEDSET47, elset=ASSEMBLY__PICKEDSET48
  *tie, name=ASSEMBLY_TIE_1, adjust=YES
  *tie, name=ASSEMBLY_TIE_2, adjust=YES
  *fluidcavity, name=CAVITY, behavior=FLUID_PROP, refnode=ASSEMBLY__PICKEDSET31, surface=ASSEMBLY_CAVITY_SURF

          PROCESSING FLUID CAVITY:  CAVITY                                                                          
               CREATED ELEMENT SET:  FLUID_CAVITY                                                                    
               NUMBER OF FLUID ELEMENTS CREATED:        770


  *rigidbody, refnode=ASSEMBLY__PICKEDSET47, elset=ASSEMBLY__PICKEDSET48
  *rigidbody, refnode=ASSEMBLY__PICKEDSET47, elset=ASSEMBLY__PICKEDSET48
  *fluidcavity, name=CAVITY, behavior=FLUID_PROP, refnode=ASSEMBLY__PICKEDSET31, surface=ASSEMBLY_CAVITY_SURF
  *boundary
  *boundary
  *boundary
  *boundary
  *boundary
  *boundary
  *tie, name=ASSEMBLY_TIE_1, adjust=YES

 ***WARNING: *TIE BETWEEN SURFACE PAIR 
             (ASSEMBLY__PICKEDSURF32,ASSEMBLY__PICKEDSURF33) IS REVERTED BACK 
             TO TYPE NODE-TO-SURFACE. THIS CASE MAY HAPPEN IF TYPE 
             SURFACE-TO-SURFACE CANNOT FIND NODES TO TIE TOGETHER OR IF DEFAULT 
             ACOUSTIC-STRUCTURAL TIE IS SPECIFIED INVOLVING SHELLS. PLEASE 
             CHECK THE SURFACE DEFINITIONS OR SPECIFY TYPE=SURFACE TO SURFACE 
             FOR ACOUSTIC-STRUCTURAL TIE.

 ***WARNING: FOR *TIE PAIR (ASSEMBLY__PICKEDSURF32-ASSEMBLY__PICKEDSURF33), 
             ADJUSTED NODES WITH VERY SMALL ADJUSTMENTS WERE NOT PRINTED. 
             SPECIFY *PREPRINT,MODEL=YES FOR COMPLETE PRINTOUT.
  *tie, name=ASSEMBLY_TIE_2, adjust=YES

 ***WARNING: FOR *TIE PAIR (ASSEMBLY__PICKEDSURF35-ASSEMBLY__PICKEDSURF34), 
             ADJUSTED NODES WITH VERY SMALL ADJUSTMENTS WERE NOT PRINTED. 
             SPECIFY *PREPRINT,MODEL=YES FOR COMPLETE PRINTOUT.
  *tie, name=ASSEMBLY_TIE_1, adjust=YES
  *tie, name=ASSEMBLY_TIE_2, adjust=YES
  *tie, name=ASSEMBLY_TIE_1, adjust=YES

 ***WARNING: SLAVE NODE 218 INSTANCE PART-1-1 WILL NOT BE TIED TO THE MASTER 
             SURFACE ASSEMBLY__PICKEDSURF33. THE DISTANCE FROM THE MASTER 
             SURFACE IS GREATER THAN THE POSITION TOLERANCE VALUE.

 ***WARNING: SLAVE NODE 219 INSTANCE PART-1-1 WILL NOT BE TIED TO THE MASTER 
             SURFACE ASSEMBLY__PICKEDSURF33. THE DISTANCE FROM THE MASTER 
             SURFACE IS GREATER THAN THE POSITION TOLERANCE VALUE.

 ***WARNING: SLAVE NODE 220 INSTANCE PART-1-1 WILL NOT BE TIED TO THE MASTER 
             SURFACE ASSEMBLY__PICKEDSURF33. THE DISTANCE FROM THE MASTER 
             SURFACE IS GREATER THAN THE POSITION TOLERANCE VALUE.

 ***WARNING: SLAVE NODE 221 INSTANCE PART-1-1 WILL NOT BE TIED TO THE MASTER 
             SURFACE ASSEMBLY__PICKEDSURF33. THE DISTANCE FROM THE MASTER 
             SURFACE IS GREATER THAN THE POSITION TOLERANCE VALUE.

 ***WARNING: SLAVE NODE 222 INSTANCE PART-1-1 WILL NOT BE TIED TO THE MASTER 
             SURFACE ASSEMBLY__PICKEDSURF33. THE DISTANCE FROM THE MASTER 
             SURFACE IS GREATER THAN THE POSITION TOLERANCE VALUE.

 ***WARNING: SLAVE NODE 223 INSTANCE PART-1-1 WILL NOT BE TIED TO THE MASTER 
             SURFACE ASSEMBLY__PICKEDSURF33. THE DISTANCE FROM THE MASTER 
             SURFACE IS GREATER THAN THE POSITION TOLERANCE VALUE.

 ***WARNING: SLAVE NODE 224 INSTANCE PART-1-1 WILL NOT BE TIED TO THE MASTER 
             SURFACE ASSEMBLY__PICKEDSURF33. THE DISTANCE FROM THE MASTER 
             SURFACE IS GREATER THAN THE POSITION TOLERANCE VALUE.

 ***WARNING: SLAVE NODE 225 INSTANCE PART-1-1 WILL NOT BE TIED TO THE MASTER 
             SURFACE ASSEMBLY__PICKEDSURF33. THE DISTANCE FROM THE MASTER 
             SURFACE IS GREATER THAN THE POSITION TOLERANCE VALUE.

 ***WARNING: SLAVE NODE 226 INSTANCE PART-1-1 WILL NOT BE TIED TO THE MASTER 
             SURFACE ASSEMBLY__PICKEDSURF33. THE DISTANCE FROM THE MASTER 
             SURFACE IS GREATER THAN THE POSITION TOLERANCE VALUE.

 ***WARNING: SLAVE NODE 227 INSTANCE PART-1-1 WILL NOT BE TIED TO THE MASTER 
             SURFACE ASSEMBLY__PICKEDSURF33. THE DISTANCE FROM THE MASTER 
             SURFACE IS GREATER THAN THE POSITION TOLERANCE VALUE.

 ***WARNING: SLAVE NODE 228 INSTANCE PART-1-1 WILL NOT BE TIED TO THE MASTER 
             SURFACE ASSEMBLY__PICKEDSURF33. THE DISTANCE FROM THE MASTER 
             SURFACE IS GREATER THAN THE POSITION TOLERANCE VALUE.

 ***NOTE: THE ABOVE WARNING MESSAGE IS BEING SUPPRESSED DUE TO EXCESSIVE 
          REPORTING.
  *tie, name=ASSEMBLY_TIE_2, adjust=YES

 ***WARNING: OVERCONSTRAINT CHECKS: THE *TIE CONSTRAINT BETWEEN SLAVE NODE 1 
             INSTANCE INFLATOR_EDGES-1 AND THE MASTER SURFACE WITH NODE 16 
             INSTANCE INFLATOR_FACE-2 CONFLICTS WITH THE CONSTRAINTS DUE TO THE 
             RIGID BODY WITH REFERENCE NODE 2 (ASSEMBLY). THE *TIE CONSTRAINT 
             IS REMOVED. CHECK IF THIS IS ACCEPTABLE.

 ***WARNING: OVERCONSTRAINT CHECKS: THE *TIE CONSTRAINT BETWEEN SLAVE NODE 2 
             INSTANCE INFLATOR_EDGES-1 AND THE MASTER SURFACE WITH NODE 288 
             INSTANCE INFLATOR_FACE-2 CONFLICTS WITH THE CONSTRAINTS DUE TO THE 
             RIGID BODY WITH REFERENCE NODE 2 (ASSEMBLY). THE *TIE CONSTRAINT 
             IS REMOVED. CHECK IF THIS IS ACCEPTABLE.

 ***WARNING: OVERCONSTRAINT CHECKS: THE *TIE CONSTRAINT BETWEEN SLAVE NODE 3 
             INSTANCE INFLATOR_EDGES-1 AND THE MASTER SURFACE WITH NODE 1 
             INSTANCE INFLATOR_FACE-2 CONFLICTS WITH THE CONSTRAINTS DUE TO THE 
             RIGID BODY WITH REFERENCE NODE 2 (ASSEMBLY). THE *TIE CONSTRAINT 
             IS REMOVED. CHECK IF THIS IS ACCEPTABLE.

 ***WARNING: OVERCONSTRAINT CHECKS: THE *TIE CONSTRAINT BETWEEN SLAVE NODE 4 
             INSTANCE INFLATOR_EDGES-1 AND THE MASTER SURFACE WITH NODE 273 
             INSTANCE INFLATOR_FACE-2 CONFLICTS WITH THE CONSTRAINTS DUE TO THE 
             RIGID BODY WITH REFERENCE NODE 2 (ASSEMBLY). THE *TIE CONSTRAINT 
             IS REMOVED. CHECK IF THIS IS ACCEPTABLE.

 ***WARNING: OVERCONSTRAINT CHECKS: THE *TIE CONSTRAINT BETWEEN SLAVE NODE 5 
             INSTANCE INFLATOR_EDGES-1 AND THE MASTER SURFACE WITH NODE 16 
             INSTANCE INFLATOR_FACE-2 CONFLICTS WITH THE CONSTRAINTS DUE TO THE 
             RIGID BODY WITH REFERENCE NODE 2 (ASSEMBLY). THE *TIE CONSTRAINT 
             IS REMOVED. CHECK IF THIS IS ACCEPTABLE.

 ***WARNING: OVERCONSTRAINT CHECKS: THE *TIE CONSTRAINT BETWEEN SLAVE NODE 6 
             INSTANCE INFLATOR_EDGES-1 AND THE MASTER SURFACE WITH NODE 288 
             INSTANCE INFLATOR_FACE-2 CONFLICTS WITH THE CONSTRAINTS DUE TO THE 
             RIGID BODY WITH REFERENCE NODE 2 (ASSEMBLY). THE *TIE CONSTRAINT 
             IS REMOVED. CHECK IF THIS IS ACCEPTABLE.

 ***WARNING: OVERCONSTRAINT CHECKS: THE *TIE CONSTRAINT BETWEEN SLAVE NODE 7 
             INSTANCE INFLATOR_EDGES-1 AND THE MASTER SURFACE WITH NODE 273 
             INSTANCE INFLATOR_FACE-2 CONFLICTS WITH THE CONSTRAINTS DUE TO THE 
             RIGID BODY WITH REFERENCE NODE 2 (ASSEMBLY). THE *TIE CONSTRAINT 
             IS REMOVED. CHECK IF THIS IS ACCEPTABLE.

 ***WARNING: OVERCONSTRAINT CHECKS: THE *TIE CONSTRAINT BETWEEN SLAVE NODE 8 
             INSTANCE INFLATOR_EDGES-1 AND THE MASTER SURFACE WITH NODE 1 
             INSTANCE INFLATOR_FACE-2 CONFLICTS WITH THE CONSTRAINTS DUE TO THE 
             RIGID BODY WITH REFERENCE NODE 2 (ASSEMBLY). THE *TIE CONSTRAINT 
             IS REMOVED. CHECK IF THIS IS ACCEPTABLE.

 ***WARNING: OVERCONSTRAINT CHECKS: THE *TIE CONSTRAINT BETWEEN SLAVE NODE 9 
             INSTANCE INFLATOR_EDGES-1 AND THE MASTER SURFACE WITH NODE 16 
             INSTANCE INFLATOR_FACE-2 CONFLICTS WITH THE CONSTRAINTS DUE TO THE 
             RIGID BODY WITH REFERENCE NODE 2 (ASSEMBLY). THE *TIE CONSTRAINT 
             IS REMOVED. CHECK IF THIS IS ACCEPTABLE.

 ***WARNING: OVERCONSTRAINT CHECKS: THE *TIE CONSTRAINT BETWEEN SLAVE NODE 10 
             INSTANCE INFLATOR_EDGES-1 AND THE MASTER SURFACE WITH NODE 50 
             INSTANCE INFLATOR_FACE-2 CONFLICTS WITH THE CONSTRAINTS DUE TO THE 
             RIGID BODY WITH REFERENCE NODE 2 (ASSEMBLY). THE *TIE CONSTRAINT 
             IS REMOVED. CHECK IF THIS IS ACCEPTABLE.

 ***WARNING: OVERCONSTRAINT CHECKS: THE *TIE CONSTRAINT BETWEEN SLAVE NODE 11 
             INSTANCE INFLATOR_EDGES-1 AND THE MASTER SURFACE WITH NODE 84 
             INSTANCE INFLATOR_FACE-2 CONFLICTS WITH THE CONSTRAINTS DUE TO THE 
             RIGID BODY WITH REFERENCE NODE 2 (ASSEMBLY). THE *TIE CONSTRAINT 
             IS REMOVED. CHECK IF THIS IS ACCEPTABLE.

 ***WARNING: OVERCONSTRAINT CHECKS: THE *TIE CONSTRAINT BETWEEN SLAVE NODE 12 
             INSTANCE INFLATOR_EDGES-1 AND THE MASTER SURFACE WITH NODE 118 
             INSTANCE INFLATOR_FACE-2 CONFLICTS WITH THE CONSTRAINTS DUE TO THE 
             RIGID BODY WITH REFERENCE NODE 2 (ASSEMBLY). THE *TIE CONSTRAINT 
             IS REMOVED. CHECK IF THIS IS ACCEPTABLE.

 ***WARNING: OVERCONSTRAINT CHECKS: THE *TIE CONSTRAINT BETWEEN SLAVE NODE 13 
             INSTANCE INFLATOR_EDGES-1 AND THE MASTER SURFACE WITH NODE 152 
             INSTANCE INFLATOR_FACE-2 CONFLICTS WITH THE CONSTRAINTS DUE TO THE 
             RIGID BODY WITH REFERENCE NODE 2 (ASSEMBLY). THE *TIE CONSTRAINT 
             IS REMOVED. CHECK IF THIS IS ACCEPTABLE.

 ***WARNING: OVERCONSTRAINT CHECKS: THE *TIE CONSTRAINT BETWEEN SLAVE NODE 14 
             INSTANCE INFLATOR_EDGES-1 AND THE MASTER SURFACE WITH NODE 186 
             INSTANCE INFLATOR_FACE-2 CONFLICTS WITH THE CONSTRAINTS DUE TO THE 
             RIGID BODY WITH REFERENCE NODE 2 (ASSEMBLY). THE *TIE CONSTRAINT 
             IS REMOVED. CHECK IF THIS IS ACCEPTABLE.

 ***WARNING: OVERCONSTRAINT CHECKS: THE *TIE CONSTRAINT BETWEEN SLAVE NODE 15 
             INSTANCE INFLATOR_EDGES-1 AND THE MASTER SURFACE WITH NODE 220 
             INSTANCE INFLATOR_FACE-2 CONFLICTS WITH THE CONSTRAINTS DUE TO THE 
             RIGID BODY WITH REFERENCE NODE 2 (ASSEMBLY). THE *TIE CONSTRAINT 
             IS REMOVED. CHECK IF THIS IS ACCEPTABLE.

 ***WARNING: OVERCONSTRAINT CHECKS: THE *TIE CONSTRAINT BETWEEN SLAVE NODE 16 
             INSTANCE INFLATOR_EDGES-1 AND THE MASTER SURFACE WITH NODE 254 
             INSTANCE INFLATOR_FACE-2 CONFLICTS WITH THE CONSTRAINTS DUE TO THE 
             RIGID BODY WITH REFERENCE NODE 2 (ASSEMBLY). THE *TIE CONSTRAINT 
             IS REMOVED. CHECK IF THIS IS ACCEPTABLE.

 ***WARNING: OVERCONSTRAINT CHECKS: THE *TIE CONSTRAINT BETWEEN SLAVE NODE 17 
             INSTANCE INFLATOR_EDGES-1 AND THE MASTER SURFACE WITH NODE 1 
             INSTANCE INFLATOR_FACE-2 CONFLICTS WITH THE CONSTRAINTS DUE TO THE 
             RIGID BODY WITH REFERENCE NODE 2 (ASSEMBLY). THE *TIE CONSTRAINT 
             IS REMOVED. CHECK IF THIS IS ACCEPTABLE.

 ***WARNING: OVERCONSTRAINT CHECKS: THE *TIE CONSTRAINT BETWEEN SLAVE NODE 18 
             INSTANCE INFLATOR_EDGES-1 AND THE MASTER SURFACE WITH NODE 2 
             INSTANCE INFLATOR_FACE-2 CONFLICTS WITH THE CONSTRAINTS DUE TO THE 
             RIGID BODY WITH REFERENCE NODE 2 (ASSEMBLY). THE *TIE CONSTRAINT 
             IS REMOVED. CHECK IF THIS IS ACCEPTABLE.

 ***WARNING: OVERCONSTRAINT CHECKS: THE *TIE CONSTRAINT BETWEEN SLAVE NODE 19 
             INSTANCE INFLATOR_EDGES-1 AND THE MASTER SURFACE WITH NODE 3 
             INSTANCE INFLATOR_FACE-2 CONFLICTS WITH THE CONSTRAINTS DUE TO THE 
             RIGID BODY WITH REFERENCE NODE 2 (ASSEMBLY). THE *TIE CONSTRAINT 
             IS REMOVED. CHECK IF THIS IS ACCEPTABLE.

 ***WARNING: OVERCONSTRAINT CHECKS: THE *TIE CONSTRAINT BETWEEN SLAVE NODE 20 
             INSTANCE INFLATOR_EDGES-1 AND THE MASTER SURFACE WITH NODE 4 
             INSTANCE INFLATOR_FACE-2 CONFLICTS WITH THE CONSTRAINTS DUE TO THE 
             RIGID BODY WITH REFERENCE NODE 2 (ASSEMBLY). THE *TIE CONSTRAINT 
             IS REMOVED. CHECK IF THIS IS ACCEPTABLE.

 ***WARNING: OVERCONSTRAINT CHECKS: THE *TIE CONSTRAINT BETWEEN SLAVE NODE 21 
             INSTANCE INFLATOR_EDGES-1 AND THE MASTER SURFACE WITH NODE 5 
             INSTANCE INFLATOR_FACE-2 CONFLICTS WITH THE CONSTRAINTS DUE TO THE 
             RIGID BODY WITH REFERENCE NODE 2 (ASSEMBLY). THE *TIE CONSTRAINT 
             IS REMOVED. CHECK IF THIS IS ACCEPTABLE.

 ***WARNING: OVERCONSTRAINT CHECKS: THE *TIE CONSTRAINT BETWEEN SLAVE NODE 22 
             INSTANCE INFLATOR_EDGES-1 AND THE MASTER SURFACE WITH NODE 6 
             INSTANCE INFLATOR_FACE-2 CONFLICTS WITH THE CONSTRAINTS DUE TO THE 
             RIGID BODY WITH REFERENCE NODE 2 (ASSEMBLY). THE *TIE CONSTRAINT 
             IS REMOVED. CHECK IF THIS IS ACCEPTABLE.

 ***WARNING: OVERCONSTRAINT CHECKS: THE *TIE CONSTRAINT BETWEEN SLAVE NODE 23 
             INSTANCE INFLATOR_EDGES-1 AND THE MASTER SURFACE WITH NODE 7 
             INSTANCE INFLATOR_FACE-2 CONFLICTS WITH THE CONSTRAINTS DUE TO THE 
             RIGID BODY WITH REFERENCE NODE 2 (ASSEMBLY). THE *TIE CONSTRAINT 
             IS REMOVED. CHECK IF THIS IS ACCEPTABLE.

 ***WARNING: OVERCONSTRAINT CHECKS: THE *TIE CONSTRAINT BETWEEN SLAVE NODE 24 
             INSTANCE INFLATOR_EDGES-1 AND THE MASTER SURFACE WITH NODE 9 
             INSTANCE INFLATOR_FACE-2 CONFLICTS WITH THE CONSTRAINTS DUE TO THE 
             RIGID BODY WITH REFERENCE NODE 2 (ASSEMBLY). THE *TIE CONSTRAINT 
             IS REMOVED. CHECK IF THIS IS ACCEPTABLE.

 ***WARNING: OVERCONSTRAINT CHECKS: THE *TIE CONSTRAINT BETWEEN SLAVE NODE 25 
             INSTANCE INFLATOR_EDGES-1 AND THE MASTER SURFACE WITH NODE 9 
             INSTANCE INFLATOR_FACE-2 CONFLICTS WITH THE CONSTRAINTS DUE TO THE 
             RIGID BODY WITH REFERENCE NODE 2 (ASSEMBLY). THE *TIE CONSTRAINT 
             IS REMOVED. CHECK IF THIS IS ACCEPTABLE.

 ***WARNING: OVERCONSTRAINT CHECKS: THE *TIE CONSTRAINT BETWEEN SLAVE NODE 26 
             INSTANCE INFLATOR_EDGES-1 AND THE MASTER SURFACE WITH NODE 10 
             INSTANCE INFLATOR_FACE-2 CONFLICTS WITH THE CONSTRAINTS DUE TO THE 
             RIGID BODY WITH REFERENCE NODE 2 (ASSEMBLY). THE *TIE CONSTRAINT 
             IS REMOVED. CHECK IF THIS IS ACCEPTABLE.

 ***WARNING: OVERCONSTRAINT CHECKS: THE *TIE CONSTRAINT BETWEEN SLAVE NODE 27 
             INSTANCE INFLATOR_EDGES-1 AND THE MASTER SURFACE WITH NODE 11 
             INSTANCE INFLATOR_FACE-2 CONFLICTS WITH THE CONSTRAINTS DUE TO THE 
             RIGID BODY WITH REFERENCE NODE 2 (ASSEMBLY). THE *TIE CONSTRAINT 
             IS REMOVED. CHECK IF THIS IS ACCEPTABLE.

 ***WARNING: OVERCONSTRAINT CHECKS: THE *TIE CONSTRAINT BETWEEN SLAVE NODE 28 
             INSTANCE INFLATOR_EDGES-1 AND THE MASTER SURFACE WITH NODE 12 
             INSTANCE INFLATOR_FACE-2 CONFLICTS WITH THE CONSTRAINTS DUE TO THE 
             RIGID BODY WITH REFERENCE NODE 2 (ASSEMBLY). THE *TIE CONSTRAINT 
             IS REMOVED. CHECK IF THIS IS ACCEPTABLE.

 ***WARNING: OVERCONSTRAINT CHECKS: THE *TIE CONSTRAINT BETWEEN SLAVE NODE 29 
             INSTANCE INFLATOR_EDGES-1 AND THE MASTER SURFACE WITH NODE 13 
             INSTANCE INFLATOR_FACE-2 CONFLICTS WITH THE CONSTRAINTS DUE TO THE 
             RIGID BODY WITH REFERENCE NODE 2 (ASSEMBLY). THE *TIE CONSTRAINT 
             IS REMOVED. CHECK IF THIS IS ACCEPTABLE.

 ***WARNING: OVERCONSTRAINT CHECKS: THE *TIE CONSTRAINT BETWEEN SLAVE NODE 30 
             INSTANCE INFLATOR_EDGES-1 AND THE MASTER SURFACE WITH NODE 14 
             INSTANCE INFLATOR_FACE-2 CONFLICTS WITH THE CONSTRAINTS DUE TO THE 
             RIGID BODY WITH REFERENCE NODE 2 (ASSEMBLY). THE *TIE CONSTRAINT 
             IS REMOVED. CHECK IF THIS IS ACCEPTABLE.

 ***WARNING: OVERCONSTRAINT CHECKS: THE *TIE CONSTRAINT BETWEEN SLAVE NODE 31 
             INSTANCE INFLATOR_EDGES-1 AND THE MASTER SURFACE WITH NODE 15 
             INSTANCE INFLATOR_FACE-2 CONFLICTS WITH THE CONSTRAINTS DUE TO THE 
             RIGID BODY WITH REFERENCE NODE 2 (ASSEMBLY). THE *TIE CONSTRAINT 
             IS REMOVED. CHECK IF THIS IS ACCEPTABLE.

 ***WARNING: OVERCONSTRAINT CHECKS: THE *TIE CONSTRAINT BETWEEN SLAVE NODE 32 
             INSTANCE INFLATOR_EDGES-1 AND THE MASTER SURFACE WITH NODE 239 
             INSTANCE INFLATOR_FACE-2 CONFLICTS WITH THE CONSTRAINTS DUE TO THE 
             RIGID BODY WITH REFERENCE NODE 2 (ASSEMBLY). THE *TIE CONSTRAINT 
             IS REMOVED. CHECK IF THIS IS ACCEPTABLE.

 ***WARNING: OVERCONSTRAINT CHECKS: THE *TIE CONSTRAINT BETWEEN SLAVE NODE 33 
             INSTANCE INFLATOR_EDGES-1 AND THE MASTER SURFACE WITH NODE 205 
             INSTANCE INFLATOR_FACE-2 CONFLICTS WITH THE CONSTRAINTS DUE TO THE 
             RIGID BODY WITH REFERENCE NODE 2 (ASSEMBLY). THE *TIE CONSTRAINT 
             IS REMOVED. CHECK IF THIS IS ACCEPTABLE.

 ***WARNING: OVERCONSTRAINT CHECKS: THE *TIE CONSTRAINT BETWEEN SLAVE NODE 34 
             INSTANCE INFLATOR_EDGES-1 AND THE MASTER SURFACE WITH NODE 171 
             INSTANCE INFLATOR_FACE-2 CONFLICTS WITH THE CONSTRAINTS DUE TO THE 
             RIGID BODY WITH REFERENCE NODE 2 (ASSEMBLY). THE *TIE CONSTRAINT 
             IS REMOVED. CHECK IF THIS IS ACCEPTABLE.

 ***WARNING: OVERCONSTRAINT CHECKS: THE *TIE CONSTRAINT BETWEEN SLAVE NODE 35 
             INSTANCE INFLATOR_EDGES-1 AND THE MASTER SURFACE WITH NODE 137 
             INSTANCE INFLATOR_FACE-2 CONFLICTS WITH THE CONSTRAINTS DUE TO THE 
             RIGID BODY WITH REFERENCE NODE 2 (ASSEMBLY). THE *TIE CONSTRAINT 
             IS REMOVED. CHECK IF THIS IS ACCEPTABLE.

 ***WARNING: OVERCONSTRAINT CHECKS: THE *TIE CONSTRAINT BETWEEN SLAVE NODE 36 
             INSTANCE INFLATOR_EDGES-1 AND THE MASTER SURFACE WITH NODE 103 
             INSTANCE INFLATOR_FACE-2 CONFLICTS WITH THE CONSTRAINTS DUE TO THE 
             RIGID BODY WITH REFERENCE NODE 2 (ASSEMBLY). THE *TIE CONSTRAINT 
             IS REMOVED. CHECK IF THIS IS ACCEPTABLE.

 ***WARNING: OVERCONSTRAINT CHECKS: THE *TIE CONSTRAINT BETWEEN SLAVE NODE 37 
             INSTANCE INFLATOR_EDGES-1 AND THE MASTER SURFACE WITH NODE 69 
             INSTANCE INFLATOR_FACE-2 CONFLICTS WITH THE CONSTRAINTS DUE TO THE 
             RIGID BODY WITH REFERENCE NODE 2 (ASSEMBLY). THE *TIE CONSTRAINT 
             IS REMOVED. CHECK IF THIS IS ACCEPTABLE.

 ***WARNING: OVERCONSTRAINT CHECKS: THE *TIE CONSTRAINT BETWEEN SLAVE NODE 38 
             INSTANCE INFLATOR_EDGES-1 AND THE MASTER SURFACE WITH NODE 35 
             INSTANCE INFLATOR_FACE-2 CONFLICTS WITH THE CONSTRAINTS DUE TO THE 
             RIGID BODY WITH REFERENCE NODE 2 (ASSEMBLY). THE *TIE CONSTRAINT 
             IS REMOVED. CHECK IF THIS IS ACCEPTABLE.

 ***WARNING: OVERCONSTRAINT CHECKS: THE *TIE CONSTRAINT BETWEEN SLAVE NODE 39 
             INSTANCE INFLATOR_EDGES-1 AND THE MASTER SURFACE WITH NODE 1 
             INSTANCE INFLATOR_FACE-2 CONFLICTS WITH THE CONSTRAINTS DUE TO THE 
             RIGID BODY WITH REFERENCE NODE 2 (ASSEMBLY). THE *TIE CONSTRAINT 
             IS REMOVED. CHECK IF THIS IS ACCEPTABLE.

 ***WARNING: OVERCONSTRAINT CHECKS: THE *TIE CONSTRAINT BETWEEN SLAVE NODE 40 
             INSTANCE INFLATOR_EDGES-1 AND THE MASTER SURFACE WITH NODE 287 
             INSTANCE INFLATOR_FACE-2 CONFLICTS WITH THE CONSTRAINTS DUE TO THE 
             RIGID BODY WITH REFERENCE NODE 2 (ASSEMBLY). THE *TIE CONSTRAINT 
             IS REMOVED. CHECK IF THIS IS ACCEPTABLE.

 ***WARNING: OVERCONSTRAINT CHECKS: THE *TIE CONSTRAINT BETWEEN SLAVE NODE 41 
             INSTANCE INFLATOR_EDGES-1 AND THE MASTER SURFACE WITH NODE 286 
             INSTANCE INFLATOR_FACE-2 CONFLICTS WITH THE CONSTRAINTS DUE TO THE 
             RIGID BODY WITH REFERENCE NODE 2 (ASSEMBLY). THE *TIE CONSTRAINT 
             IS REMOVED. CHECK IF THIS IS ACCEPTABLE.

 ***WARNING: OVERCONSTRAINT CHECKS: THE *TIE CONSTRAINT BETWEEN SLAVE NODE 42 
             INSTANCE INFLATOR_EDGES-1 AND THE MASTER SURFACE WITH NODE 285 
             INSTANCE INFLATOR_FACE-2 CONFLICTS WITH THE CONSTRAINTS DUE TO THE 
             RIGID BODY WITH REFERENCE NODE 2 (ASSEMBLY). THE *TIE CONSTRAINT 
             IS REMOVED. CHECK IF THIS IS ACCEPTABLE.

 ***WARNING: OVERCONSTRAINT CHECKS: THE *TIE CONSTRAINT BETWEEN SLAVE NODE 43 
             INSTANCE INFLATOR_EDGES-1 AND THE MASTER SURFACE WITH NODE 284 
             INSTANCE INFLATOR_FACE-2 CONFLICTS WITH THE CONSTRAINTS DUE TO THE 
             RIGID BODY WITH REFERENCE NODE 2 (ASSEMBLY). THE *TIE CONSTRAINT 
             IS REMOVED. CHECK IF THIS IS ACCEPTABLE.

 ***WARNING: OVERCONSTRAINT CHECKS: THE *TIE CONSTRAINT BETWEEN SLAVE NODE 44 
             INSTANCE INFLATOR_EDGES-1 AND THE MASTER SURFACE WITH NODE 283 
             INSTANCE INFLATOR_FACE-2 CONFLICTS WITH THE CONSTRAINTS DUE TO THE 
             RIGID BODY WITH REFERENCE NODE 2 (ASSEMBLY). THE *TIE CONSTRAINT 
             IS REMOVED. CHECK IF THIS IS ACCEPTABLE.

 ***WARNING: OVERCONSTRAINT CHECKS: THE *TIE CONSTRAINT BETWEEN SLAVE NODE 45 
             INSTANCE INFLATOR_EDGES-1 AND THE MASTER SURFACE WITH NODE 282 
             INSTANCE INFLATOR_FACE-2 CONFLICTS WITH THE CONSTRAINTS DUE TO THE 
             RIGID BODY WITH REFERENCE NODE 2 (ASSEMBLY). THE *TIE CONSTRAINT 
             IS REMOVED. CHECK IF THIS IS ACCEPTABLE.

 ***WARNING: OVERCONSTRAINT CHECKS: THE *TIE CONSTRAINT BETWEEN SLAVE NODE 46 
             INSTANCE INFLATOR_EDGES-1 AND THE MASTER SURFACE WITH NODE 281 
             INSTANCE INFLATOR_FACE-2 CONFLICTS WITH THE CONSTRAINTS DUE TO THE 
             RIGID BODY WITH REFERENCE NODE 2 (ASSEMBLY). THE *TIE CONSTRAINT 
             IS REMOVED. CHECK IF THIS IS ACCEPTABLE.

 ***WARNING: OVERCONSTRAINT CHECKS: THE *TIE CONSTRAINT BETWEEN SLAVE NODE 47 
             INSTANCE INFLATOR_EDGES-1 AND THE MASTER SURFACE WITH NODE 280 
             INSTANCE INFLATOR_FACE-2 CONFLICTS WITH THE CONSTRAINTS DUE TO THE 
             RIGID BODY WITH REFERENCE NODE 2 (ASSEMBLY). THE *TIE CONSTRAINT 
             IS REMOVED. CHECK IF THIS IS ACCEPTABLE.

 ***WARNING: OVERCONSTRAINT CHECKS: THE *TIE CONSTRAINT BETWEEN SLAVE NODE 48 
             INSTANCE INFLATOR_EDGES-1 AND THE MASTER SURFACE WITH NODE 279 
             INSTANCE INFLATOR_FACE-2 CONFLICTS WITH THE CONSTRAINTS DUE TO THE 
             RIGID BODY WITH REFERENCE NODE 2 (ASSEMBLY). THE *TIE CONSTRAINT 
             IS REMOVED. CHECK IF THIS IS ACCEPTABLE.

 ***WARNING: OVERCONSTRAINT CHECKS: THE *TIE CONSTRAINT BETWEEN SLAVE NODE 49 
             INSTANCE INFLATOR_EDGES-1 AND THE MASTER SURFACE WITH NODE 278 
             INSTANCE INFLATOR_FACE-2 CONFLICTS WITH THE CONSTRAINTS DUE TO THE 
             RIGID BODY WITH REFERENCE NODE 2 (ASSEMBLY). THE *TIE CONSTRAINT 
             IS REMOVED. CHECK IF THIS IS ACCEPTABLE.

 ***WARNING: OVERCONSTRAINT CHECKS: THE *TIE CONSTRAINT BETWEEN SLAVE NODE 50 
             INSTANCE INFLATOR_EDGES-1 AND THE MASTER SURFACE WITH NODE 277 
             INSTANCE INFLATOR_FACE-2 CONFLICTS WITH THE CONSTRAINTS DUE TO THE 
             RIGID BODY WITH REFERENCE NODE 2 (ASSEMBLY). THE *TIE CONSTRAINT 
             IS REMOVED. CHECK IF THIS IS ACCEPTABLE.

 ***WARNING: OVERCONSTRAINT CHECKS: THE *TIE CONSTRAINT BETWEEN SLAVE NODE 51 
             INSTANCE INFLATOR_EDGES-1 AND THE MASTER SURFACE WITH NODE 276 
             INSTANCE INFLATOR_FACE-2 CONFLICTS WITH THE CONSTRAINTS DUE TO THE 
             RIGID BODY WITH REFERENCE NODE 2 (ASSEMBLY). THE *TIE CONSTRAINT 
             IS REMOVED. CHECK IF THIS IS ACCEPTABLE.

 ***WARNING: OVERCONSTRAINT CHECKS: THE *TIE CONSTRAINT BETWEEN SLAVE NODE 52 
             INSTANCE INFLATOR_EDGES-1 AND THE MASTER SURFACE WITH NODE 275 
             INSTANCE INFLATOR_FACE-2 CONFLICTS WITH THE CONSTRAINTS DUE TO THE 
             RIGID BODY WITH REFERENCE NODE 2 (ASSEMBLY). THE *TIE CONSTRAINT 
             IS REMOVED. CHECK IF THIS IS ACCEPTABLE.

 ***WARNING: OVERCONSTRAINT CHECKS: THE *TIE CONSTRAINT BETWEEN SLAVE NODE 53 
             INSTANCE INFLATOR_EDGES-1 AND THE MASTER SURFACE WITH NODE 274 
             INSTANCE INFLATOR_FACE-2 CONFLICTS WITH THE CONSTRAINTS DUE TO THE 
             RIGID BODY WITH REFERENCE NODE 2 (ASSEMBLY). THE *TIE CONSTRAINT 
             IS REMOVED. CHECK IF THIS IS ACCEPTABLE.

 ***WARNING: OVERCONSTRAINT CHECKS: THE *TIE CONSTRAINT BETWEEN SLAVE NODE 54 
             INSTANCE INFLATOR_EDGES-1 AND THE MASTER SURFACE WITH NODE 273 
             INSTANCE INFLATOR_FACE-2 CONFLICTS WITH THE CONSTRAINTS DUE TO THE 
             RIGID BODY WITH REFERENCE NODE 2 (ASSEMBLY). THE *TIE CONSTRAINT 
             IS REMOVED. CHECK IF THIS IS ACCEPTABLE.

 ***WARNING: OVERCONSTRAINT CHECKS: THE *TIE CONSTRAINT BETWEEN SLAVE NODE 55 
             INSTANCE INFLATOR_EDGES-1 AND THE MASTER SURFACE WITH NODE 16 
             INSTANCE INFLATOR_FACE-2 CONFLICTS WITH THE CONSTRAINTS DUE TO THE 
             RIGID BODY WITH REFERENCE NODE 2 (ASSEMBLY). THE *TIE CONSTRAINT 
             IS REMOVED. CHECK IF THIS IS ACCEPTABLE.

 ***WARNING: OVERCONSTRAINT CHECKS: THE *TIE CONSTRAINT BETWEEN SLAVE NODE 56 
             INSTANCE INFLATOR_EDGES-1 AND THE MASTER SURFACE WITH NODE 50 
             INSTANCE INFLATOR_FACE-2 CONFLICTS WITH THE CONSTRAINTS DUE TO THE 
             RIGID BODY WITH REFERENCE NODE 2 (ASSEMBLY). THE *TIE CONSTRAINT 
             IS REMOVED. CHECK IF THIS IS ACCEPTABLE.

 ***WARNING: OVERCONSTRAINT CHECKS: THE *TIE CONSTRAINT BETWEEN SLAVE NODE 57 
             INSTANCE INFLATOR_EDGES-1 AND THE MASTER SURFACE WITH NODE 84 
             INSTANCE INFLATOR_FACE-2 CONFLICTS WITH THE CONSTRAINTS DUE TO THE 
             RIGID BODY WITH REFERENCE NODE 2 (ASSEMBLY). THE *TIE CONSTRAINT 
             IS REMOVED. CHECK IF THIS IS ACCEPTABLE.

 ***WARNING: OVERCONSTRAINT CHECKS: THE *TIE CONSTRAINT BETWEEN SLAVE NODE 58 
             INSTANCE INFLATOR_EDGES-1 AND THE MASTER SURFACE WITH NODE 118 
             INSTANCE INFLATOR_FACE-2 CONFLICTS WITH THE CONSTRAINTS DUE TO THE 
             RIGID BODY WITH REFERENCE NODE 2 (ASSEMBLY). THE *TIE CONSTRAINT 
             IS REMOVED. CHECK IF THIS IS ACCEPTABLE.

 ***WARNING: OVERCONSTRAINT CHECKS: THE *TIE CONSTRAINT BETWEEN SLAVE NODE 59 
             INSTANCE INFLATOR_EDGES-1 AND THE MASTER SURFACE WITH NODE 152 
             INSTANCE INFLATOR_FACE-2 CONFLICTS WITH THE CONSTRAINTS DUE TO THE 
             RIGID BODY WITH REFERENCE NODE 2 (ASSEMBLY). THE *TIE CONSTRAINT 
             IS REMOVED. CHECK IF THIS IS ACCEPTABLE.

 ***WARNING: OVERCONSTRAINT CHECKS: THE *TIE CONSTRAINT BETWEEN SLAVE NODE 60 
             INSTANCE INFLATOR_EDGES-1 AND THE MASTER SURFACE WITH NODE 186 
             INSTANCE INFLATOR_FACE-2 CONFLICTS WITH THE CONSTRAINTS DUE TO THE 
             RIGID BODY WITH REFERENCE NODE 2 (ASSEMBLY). THE *TIE CONSTRAINT 
             IS REMOVED. CHECK IF THIS IS ACCEPTABLE.

 ***WARNING: OVERCONSTRAINT CHECKS: THE *TIE CONSTRAINT BETWEEN SLAVE NODE 61 
             INSTANCE INFLATOR_EDGES-1 AND THE MASTER SURFACE WITH NODE 220 
             INSTANCE INFLATOR_FACE-2 CONFLICTS WITH THE CONSTRAINTS DUE TO THE 
             RIGID BODY WITH REFERENCE NODE 2 (ASSEMBLY). THE *TIE CONSTRAINT 
             IS REMOVED. CHECK IF THIS IS ACCEPTABLE.

 ***WARNING: OVERCONSTRAINT CHECKS: THE *TIE CONSTRAINT BETWEEN SLAVE NODE 62 
             INSTANCE INFLATOR_EDGES-1 AND THE MASTER SURFACE WITH NODE 254 
             INSTANCE INFLATOR_FACE-2 CONFLICTS WITH THE CONSTRAINTS DUE TO THE 
             RIGID BODY WITH REFERENCE NODE 2 (ASSEMBLY). THE *TIE CONSTRAINT 
             IS REMOVED. CHECK IF THIS IS ACCEPTABLE.

 ***WARNING: OVERCONSTRAINT CHECKS: THE *TIE CONSTRAINT BETWEEN SLAVE NODE 63 
             INSTANCE INFLATOR_EDGES-1 AND THE MASTER SURFACE WITH NODE 287 
             INSTANCE INFLATOR_FACE-2 CONFLICTS WITH THE CONSTRAINTS DUE TO THE 
             RIGID BODY WITH REFERENCE NODE 2 (ASSEMBLY). THE *TIE CONSTRAINT 
             IS REMOVED. CHECK IF THIS IS ACCEPTABLE.

 ***WARNING: OVERCONSTRAINT CHECKS: THE *TIE CONSTRAINT BETWEEN SLAVE NODE 64 
             INSTANCE INFLATOR_EDGES-1 AND THE MASTER SURFACE WITH NODE 286 
             INSTANCE INFLATOR_FACE-2 CONFLICTS WITH THE CONSTRAINTS DUE TO THE 
             RIGID BODY WITH REFERENCE NODE 2 (ASSEMBLY). THE *TIE CONSTRAINT 
             IS REMOVED. CHECK IF THIS IS ACCEPTABLE.

 ***WARNING: OVERCONSTRAINT CHECKS: THE *TIE CONSTRAINT BETWEEN SLAVE NODE 65 
             INSTANCE INFLATOR_EDGES-1 AND THE MASTER SURFACE WITH NODE 285 
             INSTANCE INFLATOR_FACE-2 CONFLICTS WITH THE CONSTRAINTS DUE TO THE 
             RIGID BODY WITH REFERENCE NODE 2 (ASSEMBLY). THE *TIE CONSTRAINT 
             IS REMOVED. CHECK IF THIS IS ACCEPTABLE.

 ***WARNING: OVERCONSTRAINT CHECKS: THE *TIE CONSTRAINT BETWEEN SLAVE NODE 66 
             INSTANCE INFLATOR_EDGES-1 AND THE MASTER SURFACE WITH NODE 284 
             INSTANCE INFLATOR_FACE-2 CONFLICTS WITH THE CONSTRAINTS DUE TO THE 
             RIGID BODY WITH REFERENCE NODE 2 (ASSEMBLY). THE *TIE CONSTRAINT 
             IS REMOVED. CHECK IF THIS IS ACCEPTABLE.

 ***WARNING: OVERCONSTRAINT CHECKS: THE *TIE CONSTRAINT BETWEEN SLAVE NODE 67 
             INSTANCE INFLATOR_EDGES-1 AND THE MASTER SURFACE WITH NODE 283 
             INSTANCE INFLATOR_FACE-2 CONFLICTS WITH THE CONSTRAINTS DUE TO THE 
             RIGID BODY WITH REFERENCE NODE 2 (ASSEMBLY). THE *TIE CONSTRAINT 
             IS REMOVED. CHECK IF THIS IS ACCEPTABLE.

 ***WARNING: OVERCONSTRAINT CHECKS: THE *TIE CONSTRAINT BETWEEN SLAVE NODE 68 
             INSTANCE INFLATOR_EDGES-1 AND THE MASTER SURFACE WITH NODE 282 
             INSTANCE INFLATOR_FACE-2 CONFLICTS WITH THE CONSTRAINTS DUE TO THE 
             RIGID BODY WITH REFERENCE NODE 2 (ASSEMBLY). THE *TIE CONSTRAINT 
             IS REMOVED. CHECK IF THIS IS ACCEPTABLE.

 ***WARNING: OVERCONSTRAINT CHECKS: THE *TIE CONSTRAINT BETWEEN SLAVE NODE 69 
             INSTANCE INFLATOR_EDGES-1 AND THE MASTER SURFACE WITH NODE 281 
             INSTANCE INFLATOR_FACE-2 CONFLICTS WITH THE CONSTRAINTS DUE TO THE 
             RIGID BODY WITH REFERENCE NODE 2 (ASSEMBLY). THE *TIE CONSTRAINT 
             IS REMOVED. CHECK IF THIS IS ACCEPTABLE.

 ***WARNING: OVERCONSTRAINT CHECKS: THE *TIE CONSTRAINT BETWEEN SLAVE NODE 70 
             INSTANCE INFLATOR_EDGES-1 AND THE MASTER SURFACE WITH NODE 315 
             INSTANCE INFLATOR_FACE-2 CONFLICTS WITH THE CONSTRAINTS DUE TO THE 
             RIGID BODY WITH REFERENCE NODE 2 (ASSEMBLY). THE *TIE CONSTRAINT 
             IS REMOVED. CHECK IF THIS IS ACCEPTABLE.

 ***WARNING: OVERCONSTRAINT CHECKS: THE *TIE CONSTRAINT BETWEEN SLAVE NODE 71 
             INSTANCE INFLATOR_EDGES-1 AND THE MASTER SURFACE WITH NODE 279 
             INSTANCE INFLATOR_FACE-2 CONFLICTS WITH THE CONSTRAINTS DUE TO THE 
             RIGID BODY WITH REFERENCE NODE 2 (ASSEMBLY). THE *TIE CONSTRAINT 
             IS REMOVED. CHECK IF THIS IS ACCEPTABLE.

 ***WARNING: OVERCONSTRAINT CHECKS: THE *TIE CONSTRAINT BETWEEN SLAVE NODE 72 
             INSTANCE INFLATOR_EDGES-1 AND THE MASTER SURFACE WITH NODE 278 
             INSTANCE INFLATOR_FACE-2 CONFLICTS WITH THE CONSTRAINTS DUE TO THE 
             RIGID BODY WITH REFERENCE NODE 2 (ASSEMBLY). THE *TIE CONSTRAINT 
             IS REMOVED. CHECK IF THIS IS ACCEPTABLE.

 ***WARNING: OVERCONSTRAINT CHECKS: THE *TIE CONSTRAINT BETWEEN SLAVE NODE 73 
             INSTANCE INFLATOR_EDGES-1 AND THE MASTER SURFACE WITH NODE 277 
             INSTANCE INFLATOR_FACE-2 CONFLICTS WITH THE CONSTRAINTS DUE TO THE 
             RIGID BODY WITH REFERENCE NODE 2 (ASSEMBLY). THE *TIE CONSTRAINT 
             IS REMOVED. CHECK IF THIS IS ACCEPTABLE.

 ***WARNING: OVERCONSTRAINT CHECKS: THE *TIE CONSTRAINT BETWEEN SLAVE NODE 74 
             INSTANCE INFLATOR_EDGES-1 AND THE MASTER SURFACE WITH NODE 276 
             INSTANCE INFLATOR_FACE-2 CONFLICTS WITH THE CONSTRAINTS DUE TO THE 
             RIGID BODY WITH REFERENCE NODE 2 (ASSEMBLY). THE *TIE CONSTRAINT 
             IS REMOVED. CHECK IF THIS IS ACCEPTABLE.

 ***WARNING: OVERCONSTRAINT CHECKS: THE *TIE CONSTRAINT BETWEEN SLAVE NODE 75 
             INSTANCE INFLATOR_EDGES-1 AND THE MASTER SURFACE WITH NODE 275 
             INSTANCE INFLATOR_FACE-2 CONFLICTS WITH THE CONSTRAINTS DUE TO THE 
             RIGID BODY WITH REFERENCE NODE 2 (ASSEMBLY). THE *TIE CONSTRAINT 
             IS REMOVED. CHECK IF THIS IS ACCEPTABLE.

 ***WARNING: OVERCONSTRAINT CHECKS: THE *TIE CONSTRAINT BETWEEN SLAVE NODE 76 
             INSTANCE INFLATOR_EDGES-1 AND THE MASTER SURFACE WITH NODE 274 
             INSTANCE INFLATOR_FACE-2 CONFLICTS WITH THE CONSTRAINTS DUE TO THE 
             RIGID BODY WITH REFERENCE NODE 2 (ASSEMBLY). THE *TIE CONSTRAINT 
             IS REMOVED. CHECK IF THIS IS ACCEPTABLE.

 ***WARNING: OVERCONSTRAINT CHECKS: THE *TIE CONSTRAINT BETWEEN SLAVE NODE 77 
             INSTANCE INFLATOR_EDGES-1 AND THE MASTER SURFACE WITH NODE 273 
             INSTANCE INFLATOR_FACE-2 CONFLICTS WITH THE CONSTRAINTS DUE TO THE 
             RIGID BODY WITH REFERENCE NODE 2 (ASSEMBLY). THE *TIE CONSTRAINT 
             IS REMOVED. CHECK IF THIS IS ACCEPTABLE.

 ***WARNING: OVERCONSTRAINT CHECKS: THE *TIE CONSTRAINT BETWEEN SLAVE NODE 78 
             INSTANCE INFLATOR_EDGES-1 AND THE MASTER SURFACE WITH NODE 239 
             INSTANCE INFLATOR_FACE-2 CONFLICTS WITH THE CONSTRAINTS DUE TO THE 
             RIGID BODY WITH REFERENCE NODE 2 (ASSEMBLY). THE *TIE CONSTRAINT 
             IS REMOVED. CHECK IF THIS IS ACCEPTABLE.

 ***WARNING: OVERCONSTRAINT CHECKS: THE *TIE CONSTRAINT BETWEEN SLAVE NODE 79 
             INSTANCE INFLATOR_EDGES-1 AND THE MASTER SURFACE WITH NODE 205 
             INSTANCE INFLATOR_FACE-2 CONFLICTS WITH THE CONSTRAINTS DUE TO THE 
             RIGID BODY WITH REFERENCE NODE 2 (ASSEMBLY). THE *TIE CONSTRAINT 
             IS REMOVED. CHECK IF THIS IS ACCEPTABLE.

 ***WARNING: OVERCONSTRAINT CHECKS: THE *TIE CONSTRAINT BETWEEN SLAVE NODE 80 
             INSTANCE INFLATOR_EDGES-1 AND THE MASTER SURFACE WITH NODE 171 
             INSTANCE INFLATOR_FACE-2 CONFLICTS WITH THE CONSTRAINTS DUE TO THE 
             RIGID BODY WITH REFERENCE NODE 2 (ASSEMBLY). THE *TIE CONSTRAINT 
             IS REMOVED. CHECK IF THIS IS ACCEPTABLE.

 ***WARNING: OVERCONSTRAINT CHECKS: THE *TIE CONSTRAINT BETWEEN SLAVE NODE 81 
             INSTANCE INFLATOR_EDGES-1 AND THE MASTER SURFACE WITH NODE 137 
             INSTANCE INFLATOR_FACE-2 CONFLICTS WITH THE CONSTRAINTS DUE TO THE 
             RIGID BODY WITH REFERENCE NODE 2 (ASSEMBLY). THE *TIE CONSTRAINT 
             IS REMOVED. CHECK IF THIS IS ACCEPTABLE.

 ***WARNING: OVERCONSTRAINT CHECKS: THE *TIE CONSTRAINT BETWEEN SLAVE NODE 82 
             INSTANCE INFLATOR_EDGES-1 AND THE MASTER SURFACE WITH NODE 103 
             INSTANCE INFLATOR_FACE-2 CONFLICTS WITH THE CONSTRAINTS DUE TO THE 
             RIGID BODY WITH REFERENCE NODE 2 (ASSEMBLY). THE *TIE CONSTRAINT 
             IS REMOVED. CHECK IF THIS IS ACCEPTABLE.

 ***WARNING: OVERCONSTRAINT CHECKS: THE *TIE CONSTRAINT BETWEEN SLAVE NODE 83 
             INSTANCE INFLATOR_EDGES-1 AND THE MASTER SURFACE WITH NODE 69 
             INSTANCE INFLATOR_FACE-2 CONFLICTS WITH THE CONSTRAINTS DUE TO THE 
             RIGID BODY WITH REFERENCE NODE 2 (ASSEMBLY). THE *TIE CONSTRAINT 
             IS REMOVED. CHECK IF THIS IS ACCEPTABLE.

 ***WARNING: OVERCONSTRAINT CHECKS: THE *TIE CONSTRAINT BETWEEN SLAVE NODE 84 
             INSTANCE INFLATOR_EDGES-1 AND THE MASTER SURFACE WITH NODE 35 
             INSTANCE INFLATOR_FACE-2 CONFLICTS WITH THE CONSTRAINTS DUE TO THE 
             RIGID BODY WITH REFERENCE NODE 2 (ASSEMBLY). THE *TIE CONSTRAINT 
             IS REMOVED. CHECK IF THIS IS ACCEPTABLE.

 ***WARNING: OVERCONSTRAINT CHECKS: THE *TIE CONSTRAINT BETWEEN SLAVE NODE 85 
             INSTANCE INFLATOR_EDGES-1 AND THE MASTER SURFACE WITH NODE 1 
             INSTANCE INFLATOR_FACE-2 CONFLICTS WITH THE CONSTRAINTS DUE TO THE 
             RIGID BODY WITH REFERENCE NODE 2 (ASSEMBLY). THE *TIE CONSTRAINT 
             IS REMOVED. CHECK IF THIS IS ACCEPTABLE.

 ***WARNING: OVERCONSTRAINT CHECKS: THE *TIE CONSTRAINT BETWEEN SLAVE NODE 86 
             INSTANCE INFLATOR_EDGES-1 AND THE MASTER SURFACE WITH NODE 1 
             INSTANCE INFLATOR_FACE-2 CONFLICTS WITH THE CONSTRAINTS DUE TO THE 
             RIGID BODY WITH REFERENCE NODE 2 (ASSEMBLY). THE *TIE CONSTRAINT 
             IS REMOVED. CHECK IF THIS IS ACCEPTABLE.

 ***WARNING: OVERCONSTRAINT CHECKS: THE *TIE CONSTRAINT BETWEEN SLAVE NODE 87 
             INSTANCE INFLATOR_EDGES-1 AND THE MASTER SURFACE WITH NODE 2 
             INSTANCE INFLATOR_FACE-2 CONFLICTS WITH THE CONSTRAINTS DUE TO THE 
             RIGID BODY WITH REFERENCE NODE 2 (ASSEMBLY). THE *TIE CONSTRAINT 
             IS REMOVED. CHECK IF THIS IS ACCEPTABLE.

 ***WARNING: OVERCONSTRAINT CHECKS: THE *TIE CONSTRAINT BETWEEN SLAVE NODE 88 
             INSTANCE INFLATOR_EDGES-1 AND THE MASTER SURFACE WITH NODE 3 
             INSTANCE INFLATOR_FACE-2 CONFLICTS WITH THE CONSTRAINTS DUE TO THE 
             RIGID BODY WITH REFERENCE NODE 2 (ASSEMBLY). THE *TIE CONSTRAINT 
             IS REMOVED. CHECK IF THIS IS ACCEPTABLE.

 ***WARNING: OVERCONSTRAINT CHECKS: THE *TIE CONSTRAINT BETWEEN SLAVE NODE 89 
             INSTANCE INFLATOR_EDGES-1 AND THE MASTER SURFACE WITH NODE 4 
             INSTANCE INFLATOR_FACE-2 CONFLICTS WITH THE CONSTRAINTS DUE TO THE 
             RIGID BODY WITH REFERENCE NODE 2 (ASSEMBLY). THE *TIE CONSTRAINT 
             IS REMOVED. CHECK IF THIS IS ACCEPTABLE.

 ***WARNING: OVERCONSTRAINT CHECKS: THE *TIE CONSTRAINT BETWEEN SLAVE NODE 90 
             INSTANCE INFLATOR_EDGES-1 AND THE MASTER SURFACE WITH NODE 5 
             INSTANCE INFLATOR_FACE-2 CONFLICTS WITH THE CONSTRAINTS DUE TO THE 
             RIGID BODY WITH REFERENCE NODE 2 (ASSEMBLY). THE *TIE CONSTRAINT 
             IS REMOVED. CHECK IF THIS IS ACCEPTABLE.

 ***WARNING: OVERCONSTRAINT CHECKS: THE *TIE CONSTRAINT BETWEEN SLAVE NODE 91 
             INSTANCE INFLATOR_EDGES-1 AND THE MASTER SURFACE WITH NODE 6 
             INSTANCE INFLATOR_FACE-2 CONFLICTS WITH THE CONSTRAINTS DUE TO THE 
             RIGID BODY WITH REFERENCE NODE 2 (ASSEMBLY). THE *TIE CONSTRAINT 
             IS REMOVED. CHECK IF THIS IS ACCEPTABLE.

 ***WARNING: OVERCONSTRAINT CHECKS: THE *TIE CONSTRAINT BETWEEN SLAVE NODE 92 
             INSTANCE INFLATOR_EDGES-1 AND THE MASTER SURFACE WITH NODE 7 
             INSTANCE INFLATOR_FACE-2 CONFLICTS WITH THE CONSTRAINTS DUE TO THE 
             RIGID BODY WITH REFERENCE NODE 2 (ASSEMBLY). THE *TIE CONSTRAINT 
             IS REMOVED. CHECK IF THIS IS ACCEPTABLE.

 ***WARNING: OVERCONSTRAINT CHECKS: THE *TIE CONSTRAINT BETWEEN SLAVE NODE 93 
             INSTANCE INFLATOR_EDGES-1 AND THE MASTER SURFACE WITH NODE 9 
             INSTANCE INFLATOR_FACE-2 CONFLICTS WITH THE CONSTRAINTS DUE TO THE 
             RIGID BODY WITH REFERENCE NODE 2 (ASSEMBLY). THE *TIE CONSTRAINT 
             IS REMOVED. CHECK IF THIS IS ACCEPTABLE.

 ***WARNING: OVERCONSTRAINT CHECKS: THE *TIE CONSTRAINT BETWEEN SLAVE NODE 94 
             INSTANCE INFLATOR_EDGES-1 AND THE MASTER SURFACE WITH NODE 9 
             INSTANCE INFLATOR_FACE-2 CONFLICTS WITH THE CONSTRAINTS DUE TO THE 
             RIGID BODY WITH REFERENCE NODE 2 (ASSEMBLY). THE *TIE CONSTRAINT 
             IS REMOVED. CHECK IF THIS IS ACCEPTABLE.

 ***WARNING: OVERCONSTRAINT CHECKS: THE *TIE CONSTRAINT BETWEEN SLAVE NODE 95 
             INSTANCE INFLATOR_EDGES-1 AND THE MASTER SURFACE WITH NODE 10 
             INSTANCE INFLATOR_FACE-2 CONFLICTS WITH THE CONSTRAINTS DUE TO THE 
             RIGID BODY WITH REFERENCE NODE 2 (ASSEMBLY). THE *TIE CONSTRAINT 
             IS REMOVED. CHECK IF THIS IS ACCEPTABLE.

 ***WARNING: OVERCONSTRAINT CHECKS: THE *TIE CONSTRAINT BETWEEN SLAVE NODE 96 
             INSTANCE INFLATOR_EDGES-1 AND THE MASTER SURFACE WITH NODE 11 
             INSTANCE INFLATOR_FACE-2 CONFLICTS WITH THE CONSTRAINTS DUE TO THE 
             RIGID BODY WITH REFERENCE NODE 2 (ASSEMBLY). THE *TIE CONSTRAINT 
             IS REMOVED. CHECK IF THIS IS ACCEPTABLE.

 ***WARNING: OVERCONSTRAINT CHECKS: THE *TIE CONSTRAINT BETWEEN SLAVE NODE 97 
             INSTANCE INFLATOR_EDGES-1 AND THE MASTER SURFACE WITH NODE 12 
             INSTANCE INFLATOR_FACE-2 CONFLICTS WITH THE CONSTRAINTS DUE TO THE 
             RIGID BODY WITH REFERENCE NODE 2 (ASSEMBLY). THE *TIE CONSTRAINT 
             IS REMOVED. CHECK IF THIS IS ACCEPTABLE.

 ***WARNING: OVERCONSTRAINT CHECKS: THE *TIE CONSTRAINT BETWEEN SLAVE NODE 98 
             INSTANCE INFLATOR_EDGES-1 AND THE MASTER SURFACE WITH NODE 13 
             INSTANCE INFLATOR_FACE-2 CONFLICTS WITH THE CONSTRAINTS DUE TO THE 
             RIGID BODY WITH REFERENCE NODE 2 (ASSEMBLY). THE *TIE CONSTRAINT 
             IS REMOVED. CHECK IF THIS IS ACCEPTABLE.

 ***WARNING: OVERCONSTRAINT CHECKS: THE *TIE CONSTRAINT BETWEEN SLAVE NODE 99 
             INSTANCE INFLATOR_EDGES-1 AND THE MASTER SURFACE WITH NODE 14 
             INSTANCE INFLATOR_FACE-2 CONFLICTS WITH THE CONSTRAINTS DUE TO THE 
             RIGID BODY WITH REFERENCE NODE 2 (ASSEMBLY). THE *TIE CONSTRAINT 
             IS REMOVED. CHECK IF THIS IS ACCEPTABLE.

 ***WARNING: OVERCONSTRAINT CHECKS: THE *TIE CONSTRAINT BETWEEN SLAVE NODE 100 
             INSTANCE INFLATOR_EDGES-1 AND THE MASTER SURFACE WITH NODE 15 
             INSTANCE INFLATOR_FACE-2 CONFLICTS WITH THE CONSTRAINTS DUE TO THE 
             RIGID BODY WITH REFERENCE NODE 2 (ASSEMBLY). THE *TIE CONSTRAINT 
             IS REMOVED. CHECK IF THIS IS ACCEPTABLE.
  *fluidcavity, name=CAVITY, behavior=FLUID_PROP, refnode=ASSEMBLY__PICKEDSET31, surface=ASSEMBLY_CAVITY_SURF

 ***WARNING: THE SURFACE ASSEMBLY_CAVITY_SURF IS NOT COMPLETELY ENCLOSED. A 
             LIST OF ELEMENT WITH FREE EDGES ON THIS SURFACE IS GIVEN AS 
             FOLLOWS:
    Element
     Number      Instance Name

         1       INFLATOR_EDGES-1                                                                
         2       INFLATOR_EDGES-1                                                                
         3       INFLATOR_EDGES-1                                                                
         4       INFLATOR_EDGES-1                                                                
         5       INFLATOR_EDGES-1                                                                
         6       INFLATOR_EDGES-1                                                                
         7       INFLATOR_EDGES-1                                                                
         8       INFLATOR_EDGES-1                                                                
         9       INFLATOR_EDGES-1                                                                
        10       INFLATOR_EDGES-1                                                                
        11       INFLATOR_EDGES-1                                                                
        12       INFLATOR_EDGES-1                                                                
        13       INFLATOR_EDGES-1                                                                
        14       INFLATOR_EDGES-1                                                                
        15       INFLATOR_EDGES-1                                                                
        16       INFLATOR_EDGES-1                                                                
        17       INFLATOR_EDGES-1                                                                
        18       INFLATOR_EDGES-1                                                                
        19       INFLATOR_EDGES-1                                                                
        20       INFLATOR_EDGES-1                                                                
        21       INFLATOR_EDGES-1                                                                
        22       INFLATOR_EDGES-1                                                                
        23       INFLATOR_EDGES-1                                                                
        24       INFLATOR_EDGES-1                                                                
        25       INFLATOR_EDGES-1                                                                
        26       INFLATOR_EDGES-1                                                                
        27       INFLATOR_EDGES-1                                                                
        28       INFLATOR_EDGES-1                                                                
        29       INFLATOR_EDGES-1                                                                
        30       INFLATOR_EDGES-1                                                                
        31       INFLATOR_EDGES-1                                                                
        32       INFLATOR_EDGES-1                                                                
        33       INFLATOR_EDGES-1                                                                
        34       INFLATOR_EDGES-1                                                                
        35       INFLATOR_EDGES-1                                                                
        36       INFLATOR_EDGES-1                                                                
        37       INFLATOR_EDGES-1                                                                
        38       INFLATOR_EDGES-1                                                                
        39       INFLATOR_EDGES-1                                                                
        40       INFLATOR_EDGES-1                                                                
        41       INFLATOR_EDGES-1                                                                
        42       INFLATOR_EDGES-1                                                                
        43       INFLATOR_EDGES-1                                                                
        44       INFLATOR_EDGES-1                                                                
        45       INFLATOR_EDGES-1                                                                
        46       INFLATOR_EDGES-1                                                                
        47       INFLATOR_EDGES-1                                                                
        48       INFLATOR_EDGES-1                                                                
        49       INFLATOR_EDGES-1                                                                
        50       INFLATOR_EDGES-1                                                                
         1       INFLATOR_FACE-2                                                                 
         2       INFLATOR_FACE-2                                                                 
         3       INFLATOR_FACE-2                                                                 
         4       INFLATOR_FACE-2                                                                 
         5       INFLATOR_FACE-2                                                                 
         6       INFLATOR_FACE-2                                                                 
         7       INFLATOR_FACE-2                                                                 
         8       INFLATOR_FACE-2                                                                 
         9       INFLATOR_FACE-2                                                                 
        10       INFLATOR_FACE-2                                                                 
        11       INFLATOR_FACE-2                                                                 
        12       INFLATOR_FACE-2                                                                 
        13       INFLATOR_FACE-2                                                                 
        14       INFLATOR_FACE-2                                                                 
        15       INFLATOR_FACE-2                                                                 
        16       INFLATOR_FACE-2                                                                 
        17       INFLATOR_FACE-2                                                                 
        32       INFLATOR_FACE-2                                                                 
        33       INFLATOR_FACE-2                                                                 
        48       INFLATOR_FACE-2                                                                 
        49       INFLATOR_FACE-2                                                                 
        64       INFLATOR_FACE-2                                                                 
        65       INFLATOR_FACE-2                                                                 
        80       INFLATOR_FACE-2                                                                 
        81       INFLATOR_FACE-2                                                                 
        96       INFLATOR_FACE-2                                                                 
        97       INFLATOR_FACE-2                                                                 
       112       INFLATOR_FACE-2                                                                 
       113       INFLATOR_FACE-2                                                                 
       128       INFLATOR_FACE-2                                                                 
       129       INFLATOR_FACE-2                                                                 
       130       INFLATOR_FACE-2                                                                 
       131       INFLATOR_FACE-2                                                                 
       132       INFLATOR_FACE-2                                                                 
       133       INFLATOR_FACE-2                                                                 
       134       INFLATOR_FACE-2                                                                 
       135       INFLATOR_FACE-2                                                                 
       136       INFLATOR_FACE-2                                                                 
       137       INFLATOR_FACE-2                                                                 
       138       INFLATOR_FACE-2                                                                 
       139       INFLATOR_FACE-2                                                                 
       140       INFLATOR_FACE-2                                                                 
       141       INFLATOR_FACE-2                                                                 
       142       INFLATOR_FACE-2                                                                 
       143       INFLATOR_FACE-2                                                                 
       144       INFLATOR_FACE-2                                                                 
       172       PART-1-1                                                                        
       173       PART-1-1                                                                        
       174       PART-1-1                                                                        
       175       PART-1-1                                                                        
       176       PART-1-1                                                                        
       177       PART-1-1                                                                        
       178       PART-1-1                                                                        
       179       PART-1-1                                                                        
       180       PART-1-1                                                                        
       181       PART-1-1                                                                        
       182       PART-1-1                                                                        
       183       PART-1-1                                                                        
       184       PART-1-1                                                                        
       185       PART-1-1                                                                        
       186       PART-1-1                                                                        
       187       PART-1-1                                                                        
       188       PART-1-1                                                                        
       189       PART-1-1                                                                        
       212       PART-1-1                                                                        
       229       PART-1-1                                                                        
       252       PART-1-1                                                                        
       269       PART-1-1                                                                        
       292       PART-1-1                                                                        
       309       PART-1-1                                                                        
       332       PART-1-1                                                                        
       349       PART-1-1                                                                        
       372       PART-1-1                                                                        
       389       PART-1-1                                                                        
       412       PART-1-1                                                                        
       429       PART-1-1                                                                        
       452       PART-1-1                                                                        
       469       PART-1-1                                                                        
       492       PART-1-1                                                                        
       509       PART-1-1                                                                        
       532       PART-1-1                                                                        
       549       PART-1-1                                                                        
       572       PART-1-1                                                                        
       589       PART-1-1                                                                        
       612       PART-1-1                                                                        
       629       PART-1-1                                                                        
       652       PART-1-1                                                                        
       669       PART-1-1                                                                        
       692       PART-1-1                                                                        
       709       PART-1-1                                                                        
       732       PART-1-1                                                                        
       749       PART-1-1                                                                        
       772       PART-1-1                                                                        
       789       PART-1-1                                                                        
       812       PART-1-1                                                                        
       829       PART-1-1                                                                        
       852       PART-1-1                                                                        
       869       PART-1-1                                                                        
       892       PART-1-1                                                                        
       909       PART-1-1                                                                        
       932       PART-1-1                                                                        
       949       PART-1-1                                                                        
       972       PART-1-1                                                                        
       989       PART-1-1                                                                        
      1012       PART-1-1                                                                        
      1029       PART-1-1                                                                        
      1052       PART-1-1                                                                        
      1069       PART-1-1                                                                        
      1092       PART-1-1                                                                        
      1109       PART-1-1                                                                        
      1132       PART-1-1                                                                        
      1149       PART-1-1                                                                        
      1172       PART-1-1                                                                        
      1189       PART-1-1                                                                        
      1212       PART-1-1                                                                        
      1229       PART-1-1                                                                        
      1252       PART-1-1                                                                        
      1269       PART-1-1                                                                        
      1292       PART-1-1                                                                        
      1309       PART-1-1                                                                        
      1332       PART-1-1                                                                        
      1349       PART-1-1                                                                        
      1372       PART-1-1                                                                        
      1389       PART-1-1                                                                        
      1412       PART-1-1                                                                        
      1413       PART-1-1                                                                        
      1414       PART-1-1                                                                        
      1415       PART-1-1                                                                        
      1416       PART-1-1                                                                        
      1417       PART-1-1                                                                        
      1418       PART-1-1                                                                        
      1419       PART-1-1                                                                        
      1420       PART-1-1                                                                        
      1421       PART-1-1                                                                        
      1422       PART-1-1                                                                        
      1423       PART-1-1                                                                        
      1424       PART-1-1                                                                        
      1425       PART-1-1                                                                        
      1426       PART-1-1                                                                        
      1427       PART-1-1                                                                        
      1428       PART-1-1                                                                        
      1429       PART-1-1                                                                        

 ***WARNING: SURFACE ASSEMBLY_CAVITY_SURF IS NOT CONTINUOUS OR IT IS COMPOSED 
             OF TWO OR MORE REGIONS JOINED AT DISCRETE NODES.  THE NUMBER OF 
             DISCONNECTED REGIONS OR REGIONS JOINED AT DISCRETE NODES IS 3.  IF 
             THIS PROBLEM IS CAUSED BY THE INABILITY OF THE CODE TO TRIM THE 
             SURFACE PROPERLY, RESPECIFY THE SURFACE BY SPECIFYING BOTH THE 
             ELEMENT AND FACE NUMBER.  USE AVAILABLE POST PROCESSOR TO 
             VISUALIZE THIS SURFACE.
  *rigidbody, refnode=ASSEMBLY__PICKEDSET47, elset=ASSEMBLY__PICKEDSET48
  *surface, type=ELEMENT, name=ASSEMBLY_CAVITY_SURF
  *surface, type=ELEMENT, name=ASSEMBLY__PICKEDSURF32
  *surface, type=ELEMENT, name=ASSEMBLY__PICKEDSURF33
  *surface, type=ELEMENT, name=ASSEMBLY__PICKEDSURF34
  *surface, type=ELEMENT, name=ASSEMBLY__PICKEDSURF35
  *tie, name=ASSEMBLY_TIE_1, adjust=YES
  *tie, name=ASSEMBLY_TIE_2, adjust=YES
  *output, field, variable=PRESELECT
  *output, history, variable=PRESELECT
  *output, field, variable=PRESELECT
  *output, history, variable=PRESELECT
  *output, field, variable=PRESELECT
  *output, history, variable=PRESELECT
  *output, field, variable=PRESELECT
  *output, history, variable=PRESELECT
  *output, field, variable=PRESELECT
  *output, history, variable=PRESELECT
  *output, field, variable=PRESELECT
  *output, history, variable=PRESELECT

 ***WARNING: 527 nodes are either missing intersection with their respective 
             master surface or are outside the adjust zone. The nodes have been 
             identified in node set WarnNodeMissMasterIntersect.

 ***WARNING: 100 nodes are constrained by a *TIE keyword and are also 
             constrained to the reference node of a *RIGID BODY. The 
             constraints enforced by the *TIE keyword will be removed to avoid 
             overconstraints. The nodes have been identified in node set 
             WarnNodeOverconTieInRbd.
  *output, field, variable=PRESELECT
  *output, history, variable=PRESELECT
  *output, field, variable=PRESELECT
  *output, history, variable=PRESELECT
  *output, field, variable=PRESELECT
  *output, history, variable=PRESELECT
  *Step, name=Step-1, nlgeom=YES
  *output, field, variable=PRESELECT
  *output, history, variable=PRESELECT
  *Step, name=Step-2, nlgeom=YES
  *output, field, variable=PRESELECT
  *output, history, variable=PRESELECT
  *Step, name=Step-3, nlgeom=YES
  *output, field, variable=PRESELECT
  *output, history, variable=PRESELECT
  *Step, name=Step-1, nlgeom=YES
  *Step, name=Step-2, nlgeom=YES
  *Step, name=Step-3, nlgeom=YES
  *Step, name=Step-1, nlgeom=YES
  *static
  *boundary
  *output, field, variable=PRESELECT
  *output, history, variable=PRESELECT
  *endstep
  *Step, name=Step-2, nlgeom=YES
  *static
  *boundary
  *output, field, variable=PRESELECT
  *output, history, variable=PRESELECT
  *endstep
  *Step, name=Step-3, nlgeom=YES
  *static
  *boundary
  *output, field, variable=PRESELECT
  *output, history, variable=PRESELECT
  *endstep
  *boundary
  *Step, name=Step-1, nlgeom=YES
  *static
  *boundary
  *endstep

 ***WARNING: OVERCONSTRAINT CHECKS: NODE 176 INSTANCE PART-1-1 IS A SLAVE NODE 
             IN A *TIE OPTION AND  HAS A SPECIFIED BOUNDARY CONDITION. THIS 
             NODE IS ALSO CONSTRAINED BY NODE 107 INSTANCE INFLATOR_EDGES-1 
             (FROM THE *TIE OPTION). THE NONOVERLAPPING BOUNDARY CONDITIONS 
             WILL BE TRANSFERRED FROM NODE 176 INSTANCE PART-1-1 TO NODE 107 
             INSTANCE INFLATOR_EDGES-1. THE BOUNDARY CONDITIONS AT NODE 176 
             INSTANCE PART-1-1 WILL BE IGNORED.

 ***WARNING: OVERCONSTRAINT CHECKS: NODE 178 INSTANCE PART-1-1 IS A SLAVE NODE 
             IN A *TIE OPTION AND  HAS A SPECIFIED BOUNDARY CONDITION. THIS 
             NODE IS ALSO CONSTRAINED BY NODE 178 INSTANCE INFLATOR_EDGES-1 
             (FROM THE *TIE OPTION). THE NONOVERLAPPING BOUNDARY CONDITIONS 
             WILL BE TRANSFERRED FROM NODE 178 INSTANCE PART-1-1 TO NODE 178 
             INSTANCE INFLATOR_EDGES-1. THE BOUNDARY CONDITIONS AT NODE 178 
             INSTANCE PART-1-1 WILL BE IGNORED.

 ***WARNING: OVERCONSTRAINT CHECKS: NODE 180 INSTANCE PART-1-1 IS A SLAVE NODE 
             IN A *TIE OPTION AND  HAS A SPECIFIED BOUNDARY CONDITION. THIS 
             NODE IS ALSO CONSTRAINED BY NODE 179 INSTANCE INFLATOR_EDGES-1 
             (FROM THE *TIE OPTION). THE NONOVERLAPPING BOUNDARY CONDITIONS 
             WILL BE TRANSFERRED FROM NODE 180 INSTANCE PART-1-1 TO NODE 179 
             INSTANCE INFLATOR_EDGES-1. THE BOUNDARY CONDITIONS AT NODE 180 
             INSTANCE PART-1-1 WILL BE IGNORED.

 ***WARNING: OVERCONSTRAINT CHECKS: NODE 182 INSTANCE PART-1-1 IS A SLAVE NODE 
             IN A *TIE OPTION AND  HAS A SPECIFIED BOUNDARY CONDITION. THIS 
             NODE IS ALSO CONSTRAINED BY NODE 180 INSTANCE INFLATOR_EDGES-1 
             (FROM THE *TIE OPTION). THE NONOVERLAPPING BOUNDARY CONDITIONS 
             WILL BE TRANSFERRED FROM NODE 182 INSTANCE PART-1-1 TO NODE 180 
             INSTANCE INFLATOR_EDGES-1. THE BOUNDARY CONDITIONS AT NODE 182 
             INSTANCE PART-1-1 WILL BE IGNORED.

 ***WARNING: OVERCONSTRAINT CHECKS: NODE 184 INSTANCE PART-1-1 IS A SLAVE NODE 
             IN A *TIE OPTION AND  HAS A SPECIFIED BOUNDARY CONDITION. THIS 
             NODE IS ALSO CONSTRAINED BY NODE 181 INSTANCE INFLATOR_EDGES-1 
             (FROM THE *TIE OPTION). THE NONOVERLAPPING BOUNDARY CONDITIONS 
             WILL BE TRANSFERRED FROM NODE 184 INSTANCE PART-1-1 TO NODE 181 
             INSTANCE INFLATOR_EDGES-1. THE BOUNDARY CONDITIONS AT NODE 184 
             INSTANCE PART-1-1 WILL BE IGNORED.

 ***WARNING: OVERCONSTRAINT CHECKS: NODE 186 INSTANCE PART-1-1 IS A SLAVE NODE 
             IN A *TIE OPTION AND  HAS A SPECIFIED BOUNDARY CONDITION. THIS 
             NODE IS ALSO CONSTRAINED BY NODE 182 INSTANCE INFLATOR_EDGES-1 
             (FROM THE *TIE OPTION). THE NONOVERLAPPING BOUNDARY CONDITIONS 
             WILL BE TRANSFERRED FROM NODE 186 INSTANCE PART-1-1 TO NODE 182 
             INSTANCE INFLATOR_EDGES-1. THE BOUNDARY CONDITIONS AT NODE 186 
             INSTANCE PART-1-1 WILL BE IGNORED.

 ***WARNING: OVERCONSTRAINT CHECKS: NODE 190 INSTANCE PART-1-1 IS A SLAVE NODE 
             IN A *TIE OPTION AND  HAS A SPECIFIED BOUNDARY CONDITION. THIS 
             NODE IS ALSO CONSTRAINED BY NODE 184 INSTANCE INFLATOR_EDGES-1 
             (FROM THE *TIE OPTION). THE NONOVERLAPPING BOUNDARY CONDITIONS 
             WILL BE TRANSFERRED FROM NODE 190 INSTANCE PART-1-1 TO NODE 184 
             INSTANCE INFLATOR_EDGES-1. THE BOUNDARY CONDITIONS AT NODE 190 
             INSTANCE PART-1-1 WILL BE IGNORED.

 ***WARNING: OVERCONSTRAINT CHECKS: NODE 194 INSTANCE PART-1-1 IS A SLAVE NODE 
             IN A *TIE OPTION AND  HAS A SPECIFIED BOUNDARY CONDITION. THIS 
             NODE IS ALSO CONSTRAINED BY NODE 108 INSTANCE INFLATOR_EDGES-1 
             (FROM THE *TIE OPTION). THE NONOVERLAPPING BOUNDARY CONDITIONS 
             WILL BE TRANSFERRED FROM NODE 194 INSTANCE PART-1-1 TO NODE 108 
             INSTANCE INFLATOR_EDGES-1. THE BOUNDARY CONDITIONS AT NODE 194 
             INSTANCE PART-1-1 WILL BE IGNORED.

 ***WARNING: OVERCONSTRAINT CHECKS: NODE 258 INSTANCE PART-1-1 IS A SLAVE NODE 
             IN A *TIE OPTION AND  HAS A SPECIFIED BOUNDARY CONDITION. THIS 
             NODE IS ALSO CONSTRAINED BY NODE 177 INSTANCE INFLATOR_EDGES-1 
             (FROM THE *TIE OPTION). THE NONOVERLAPPING BOUNDARY CONDITIONS 
             WILL BE TRANSFERRED FROM NODE 258 INSTANCE PART-1-1 TO NODE 177 
             INSTANCE INFLATOR_EDGES-1. THE BOUNDARY CONDITIONS AT NODE 258 
             INSTANCE PART-1-1 WILL BE IGNORED.

 ***WARNING: OVERCONSTRAINT CHECKS: NODE 276 INSTANCE PART-1-1 IS A SLAVE NODE 
             IN A *TIE OPTION AND  HAS A SPECIFIED BOUNDARY CONDITION. THIS 
             NODE IS ALSO CONSTRAINED BY NODE 186 INSTANCE INFLATOR_EDGES-1 
             (FROM THE *TIE OPTION). THE NONOVERLAPPING BOUNDARY CONDITIONS 
             WILL BE TRANSFERRED FROM NODE 276 INSTANCE PART-1-1 TO NODE 186 
             INSTANCE INFLATOR_EDGES-1. THE BOUNDARY CONDITIONS AT NODE 276 
             INSTANCE PART-1-1 WILL BE IGNORED.

 ***WARNING: OVERCONSTRAINT CHECKS: NODE 340 INSTANCE PART-1-1 IS A SLAVE NODE 
             IN A *TIE OPTION AND  HAS A SPECIFIED BOUNDARY CONDITION. THIS 
             NODE IS ALSO CONSTRAINED BY NODE 176 INSTANCE INFLATOR_EDGES-1 
             (FROM THE *TIE OPTION). THE NONOVERLAPPING BOUNDARY CONDITIONS 
             WILL BE TRANSFERRED FROM NODE 340 INSTANCE PART-1-1 TO NODE 176 
             INSTANCE INFLATOR_EDGES-1. THE BOUNDARY CONDITIONS AT NODE 340 
             INSTANCE PART-1-1 WILL BE IGNORED.

 ***WARNING: OVERCONSTRAINT CHECKS: NODE 422 INSTANCE PART-1-1 IS A SLAVE NODE 
             IN A *TIE OPTION AND  HAS A SPECIFIED BOUNDARY CONDITION. THIS 
             NODE IS ALSO CONSTRAINED BY NODE 175 INSTANCE INFLATOR_EDGES-1 
             (FROM THE *TIE OPTION). THE NONOVERLAPPING BOUNDARY CONDITIONS 
             WILL BE TRANSFERRED FROM NODE 422 INSTANCE PART-1-1 TO NODE 175 
             INSTANCE INFLATOR_EDGES-1. THE BOUNDARY CONDITIONS AT NODE 422 
             INSTANCE PART-1-1 WILL BE IGNORED.

 ***WARNING: OVERCONSTRAINT CHECKS: NODE 440 INSTANCE PART-1-1 IS A SLAVE NODE 
             IN A *TIE OPTION AND  HAS A SPECIFIED BOUNDARY CONDITION. THIS 
             NODE IS ALSO CONSTRAINED BY NODE 188 INSTANCE INFLATOR_EDGES-1 
             (FROM THE *TIE OPTION). THE NONOVERLAPPING BOUNDARY CONDITIONS 
             WILL BE TRANSFERRED FROM NODE 440 INSTANCE PART-1-1 TO NODE 188 
             INSTANCE INFLATOR_EDGES-1. THE BOUNDARY CONDITIONS AT NODE 440 
             INSTANCE PART-1-1 WILL BE IGNORED.

 ***WARNING: OVERCONSTRAINT CHECKS: NODE 504 INSTANCE PART-1-1 IS A SLAVE NODE 
             IN A *TIE OPTION AND  HAS A SPECIFIED BOUNDARY CONDITION. THIS 
             NODE IS ALSO CONSTRAINED BY NODE 174 INSTANCE INFLATOR_EDGES-1 
             (FROM THE *TIE OPTION). THE NONOVERLAPPING BOUNDARY CONDITIONS 
             WILL BE TRANSFERRED FROM NODE 504 INSTANCE PART-1-1 TO NODE 174 
             INSTANCE INFLATOR_EDGES-1. THE BOUNDARY CONDITIONS AT NODE 504 
             INSTANCE PART-1-1 WILL BE IGNORED.

 ***WARNING: OVERCONSTRAINT CHECKS: NODE 586 INSTANCE PART-1-1 IS A SLAVE NODE 
             IN A *TIE OPTION AND  HAS A SPECIFIED BOUNDARY CONDITION. THIS 
             NODE IS ALSO CONSTRAINED BY NODE 173 INSTANCE INFLATOR_EDGES-1 
             (FROM THE *TIE OPTION). THE NONOVERLAPPING BOUNDARY CONDITIONS 
             WILL BE TRANSFERRED FROM NODE 586 INSTANCE PART-1-1 TO NODE 173 
             INSTANCE INFLATOR_EDGES-1. THE BOUNDARY CONDITIONS AT NODE 586 
             INSTANCE PART-1-1 WILL BE IGNORED.

 ***WARNING: OVERCONSTRAINT CHECKS: NODE 604 INSTANCE PART-1-1 IS A SLAVE NODE 
             IN A *TIE OPTION AND  HAS A SPECIFIED BOUNDARY CONDITION. THIS 
             NODE IS ALSO CONSTRAINED BY NODE 190 INSTANCE INFLATOR_EDGES-1 
             (FROM THE *TIE OPTION). THE NONOVERLAPPING BOUNDARY CONDITIONS 
             WILL BE TRANSFERRED FROM NODE 604 INSTANCE PART-1-1 TO NODE 190 
             INSTANCE INFLATOR_EDGES-1. THE BOUNDARY CONDITIONS AT NODE 604 
             INSTANCE PART-1-1 WILL BE IGNORED.

 ***WARNING: OVERCONSTRAINT CHECKS: NODE 668 INSTANCE PART-1-1 IS A SLAVE NODE 
             IN A *TIE OPTION AND  HAS A SPECIFIED BOUNDARY CONDITION. THIS 
[...]
             THIS BOUNDARY CONDITION IS IGNORED

 ***WARNING: DEGREE OF FREEDOM 4 IS NOT ACTIVE ON NODE 1666 INSTANCE PART-1-1 - 
             THIS BOUNDARY CONDITION IS IGNORED

 ***WARNING: DEGREE OF FREEDOM 5 IS NOT ACTIVE ON NODE 1666 INSTANCE PART-1-1 - 
             THIS BOUNDARY CONDITION IS IGNORED

 ***WARNING: DEGREE OF FREEDOM 6 IS NOT ACTIVE ON NODE 1666 INSTANCE PART-1-1 - 
             THIS BOUNDARY CONDITION IS IGNORED

 ***WARNING: DEGREE OF FREEDOM 4 IS NOT ACTIVE ON NODE 1667 INSTANCE PART-1-1 - 
             THIS BOUNDARY CONDITION IS IGNORED

 ***WARNING: DEGREE OF FREEDOM 5 IS NOT ACTIVE ON NODE 1667 INSTANCE PART-1-1 - 
             THIS BOUNDARY CONDITION IS IGNORED

 ***WARNING: DEGREE OF FREEDOM 6 IS NOT ACTIVE ON NODE 1667 INSTANCE PART-1-1 - 
             THIS BOUNDARY CONDITION IS IGNORED

 ***WARNING: DEGREE OF FREEDOM 4 IS NOT ACTIVE ON NODE 1668 INSTANCE PART-1-1 - 
             THIS BOUNDARY CONDITION IS IGNORED

 ***WARNING: DEGREE OF FREEDOM 5 IS NOT ACTIVE ON NODE 1668 INSTANCE PART-1-1 - 
             THIS BOUNDARY CONDITION IS IGNORED

 ***WARNING: DEGREE OF FREEDOM 6 IS NOT ACTIVE ON NODE 1668 INSTANCE PART-1-1 - 
             THIS BOUNDARY CONDITION IS IGNORED

 ***WARNING: DEGREE OF FREEDOM 4 IS NOT ACTIVE ON NODE 1669 INSTANCE PART-1-1 - 
             THIS BOUNDARY CONDITION IS IGNORED

 ***WARNING: DEGREE OF FREEDOM 5 IS NOT ACTIVE ON NODE 1669 INSTANCE PART-1-1 - 
             THIS BOUNDARY CONDITION IS IGNORED

 ***WARNING: DEGREE OF FREEDOM 6 IS NOT ACTIVE ON NODE 1669 INSTANCE PART-1-1 - 
             THIS BOUNDARY CONDITION IS IGNORED

 ***WARNING: DEGREE OF FREEDOM 4 IS NOT ACTIVE ON NODE 1670 INSTANCE PART-1-1 - 
             THIS BOUNDARY CONDITION IS IGNORED

 ***WARNING: DEGREE OF FREEDOM 5 IS NOT ACTIVE ON NODE 1670 INSTANCE PART-1-1 - 
             THIS BOUNDARY CONDITION IS IGNORED

 ***WARNING: DEGREE OF FREEDOM 6 IS NOT ACTIVE ON NODE 1670 INSTANCE PART-1-1 - 
             THIS BOUNDARY CONDITION IS IGNORED

 ***WARNING: DEGREE OF FREEDOM 4 IS NOT ACTIVE ON NODE 1671 INSTANCE PART-1-1 - 
             THIS BOUNDARY CONDITION IS IGNORED

 ***WARNING: DEGREE OF FREEDOM 5 IS NOT ACTIVE ON NODE 1671 INSTANCE PART-1-1 - 
             THIS BOUNDARY CONDITION IS IGNORED

 ***WARNING: DEGREE OF FREEDOM 6 IS NOT ACTIVE ON NODE 1671 INSTANCE PART-1-1 - 
             THIS BOUNDARY CONDITION IS IGNORED

 ***WARNING: DEGREE OF FREEDOM 4 IS NOT ACTIVE ON NODE 1672 INSTANCE PART-1-1 - 
             THIS BOUNDARY CONDITION IS IGNORED

 ***WARNING: DEGREE OF FREEDOM 5 IS NOT ACTIVE ON NODE 1672 INSTANCE PART-1-1 - 
             THIS BOUNDARY CONDITION IS IGNORED

 ***WARNING: DEGREE OF FREEDOM 6 IS NOT ACTIVE ON NODE 1672 INSTANCE PART-1-1 - 
             THIS BOUNDARY CONDITION IS IGNORED

 ***WARNING: DEGREE OF FREEDOM 4 IS NOT ACTIVE ON NODE 1673 INSTANCE PART-1-1 - 
             THIS BOUNDARY CONDITION IS IGNORED

 ***WARNING: DEGREE OF FREEDOM 5 IS NOT ACTIVE ON NODE 1673 INSTANCE PART-1-1 - 
             THIS BOUNDARY CONDITION IS IGNORED

 ***WARNING: DEGREE OF FREEDOM 6 IS NOT ACTIVE ON NODE 1673 INSTANCE PART-1-1 - 
             THIS BOUNDARY CONDITION IS IGNORED

 ***WARNING: DEGREE OF FREEDOM 4 IS NOT ACTIVE ON NODE 1674 INSTANCE PART-1-1 - 
             THIS BOUNDARY CONDITION IS IGNORED

 ***WARNING: DEGREE OF FREEDOM 5 IS NOT ACTIVE ON NODE 1674 INSTANCE PART-1-1 - 
             THIS BOUNDARY CONDITION IS IGNORED

 ***WARNING: DEGREE OF FREEDOM 6 IS NOT ACTIVE ON NODE 1674 INSTANCE PART-1-1 - 
             THIS BOUNDARY CONDITION IS IGNORED

 ***WARNING: DEGREE OF FREEDOM 4 IS NOT ACTIVE ON NODE 1675 INSTANCE PART-1-1 - 
             THIS BOUNDARY CONDITION IS IGNORED

 ***WARNING: DEGREE OF FREEDOM 5 IS NOT ACTIVE ON NODE 1675 INSTANCE PART-1-1 - 
             THIS BOUNDARY CONDITION IS IGNORED

 ***WARNING: DEGREE OF FREEDOM 6 IS NOT ACTIVE ON NODE 1675 INSTANCE PART-1-1 - 
             THIS BOUNDARY CONDITION IS IGNORED

 ***WARNING: DEGREE OF FREEDOM 4 IS NOT ACTIVE ON NODE 1676 INSTANCE PART-1-1 - 
             THIS BOUNDARY CONDITION IS IGNORED

 ***WARNING: DEGREE OF FREEDOM 5 IS NOT ACTIVE ON NODE 1676 INSTANCE PART-1-1 - 
             THIS BOUNDARY CONDITION IS IGNORED

 ***WARNING: DEGREE OF FREEDOM 6 IS NOT ACTIVE ON NODE 1676 INSTANCE PART-1-1 - 
             THIS BOUNDARY CONDITION IS IGNORED

 ***WARNING: DEGREE OF FREEDOM 4 IS NOT ACTIVE ON NODE 1677 INSTANCE PART-1-1 - 
             THIS BOUNDARY CONDITION IS IGNORED

 ***WARNING: DEGREE OF FREEDOM 5 IS NOT ACTIVE ON NODE 1677 INSTANCE PART-1-1 - 
             THIS BOUNDARY CONDITION IS IGNORED

 ***WARNING: DEGREE OF FREEDOM 6 IS NOT ACTIVE ON NODE 1677 INSTANCE PART-1-1 - 
             THIS BOUNDARY CONDITION IS IGNORED

 ***WARNING: DEGREE OF FREEDOM 4 IS NOT ACTIVE ON NODE 1678 INSTANCE PART-1-1 - 
             THIS BOUNDARY CONDITION IS IGNORED

 ***WARNING: DEGREE OF FREEDOM 5 IS NOT ACTIVE ON NODE 1678 INSTANCE PART-1-1 - 
             THIS BOUNDARY CONDITION IS IGNORED

 ***WARNING: DEGREE OF FREEDOM 6 IS NOT ACTIVE ON NODE 1678 INSTANCE PART-1-1 - 
             THIS BOUNDARY CONDITION IS IGNORED

 ***WARNING: DEGREE OF FREEDOM 4 IS NOT ACTIVE ON NODE 1679 INSTANCE PART-1-1 - 
             THIS BOUNDARY CONDITION IS IGNORED

 ***WARNING: DEGREE OF FREEDOM 5 IS NOT ACTIVE ON NODE 1679 INSTANCE PART-1-1 - 
             THIS BOUNDARY CONDITION IS IGNORED

 ***WARNING: DEGREE OF FREEDOM 6 IS NOT ACTIVE ON NODE 1679 INSTANCE PART-1-1 - 
             THIS BOUNDARY CONDITION IS IGNORED

 ***WARNING: DEGREE OF FREEDOM 4 IS NOT ACTIVE ON NODE 1680 INSTANCE PART-1-1 - 
             THIS BOUNDARY CONDITION IS IGNORED

 ***WARNING: DEGREE OF FREEDOM 5 IS NOT ACTIVE ON NODE 1680 INSTANCE PART-1-1 - 
             THIS BOUNDARY CONDITION IS IGNORED

 ***WARNING: DEGREE OF FREEDOM 6 IS NOT ACTIVE ON NODE 1680 INSTANCE PART-1-1 - 
             THIS BOUNDARY CONDITION IS IGNORED

 ***WARNING: DEGREE OF FREEDOM 4 IS NOT ACTIVE ON NODE 1681 INSTANCE PART-1-1 - 
             THIS BOUNDARY CONDITION IS IGNORED

 ***WARNING: DEGREE OF FREEDOM 5 IS NOT ACTIVE ON NODE 1681 INSTANCE PART-1-1 - 
             THIS BOUNDARY CONDITION IS IGNORED

 ***WARNING: DEGREE OF FREEDOM 6 IS NOT ACTIVE ON NODE 1681 INSTANCE PART-1-1 - 
             THIS BOUNDARY CONDITION IS IGNORED

 ***NOTE: Boundary conditions are specified on inactive dof of 1191 nodes. The 
          nodes have been identified in node set WarnNodeBCInactiveDof.



                            P R O B L E M   S I Z E


          NUMBER OF ELEMENTS IS                                  4165
          NUMBER OF ELEMENTS DEFINED BY THE USER AND *TIE        4164
          NUMBER OF NODES IS                                     5585
          NUMBER OF NODES DEFINED BY THE USER                    5585
          TOTAL NUMBER OF VARIABLES IN THE MODEL                16756
          (DEGREES OF FREEDOM PLUS MAX NO. OF ANY LAGRANGE MULTIPLIER
           VARIABLES. INCLUDE *PRINT,SOLVE=YES TO GET THE ACTUAL NUMBER.)



                              END OF USER INPUT PROCESSING



     JOB TIME SUMMARY
       USER TIME (SEC)      =  0.70000    
       SYSTEM TIME (SEC)    =  0.20000    
       TOTAL CPU TIME (SEC) =  0.90000    
       WALLCLOCK TIME (SEC) =          1
1

   Abaqus 2020                                  Date 31-May-2021   Time 02:03:03
   For use by PURDUE UNIVERSITY under license from Dassault Systemes or its subsidiary.

                                                                                               STEP    1  INCREMENT    1
                                                                                          TIME COMPLETED IN THIS STEP   0.00    


                        S T E P       1     S T A T I C   A N A L Y S I S


                                                                                          

     AUTOMATIC TIME CONTROL WITH -
          A SUGGESTED INITIAL TIME INCREMENT OF                 1.00    
          AND A TOTAL TIME PERIOD OF                            10.0    
          THE MINIMUM TIME INCREMENT ALLOWED IS                1.000E-04
          THE MAXIMUM TIME INCREMENT ALLOWED IS                 1.00    

     LINEAR EQUATION SOLVER TYPE         DIRECT SPARSE

          LARGE DISPLACEMENT THEORY WILL BE USED
  
                   M E M O R Y   E S T I M A T E
  
 PROCESS      FLOATING PT       MINIMUM MEMORY        MEMORY TO
              OPERATIONS           REQUIRED          MINIMIZE I/O
             PER ITERATION           (MB)               (MB)
  
     1          7.56E+08               30                 73
  
 NOTE:
      (1) SINCE ABAQUS DOES NOT PRE-ALLOCATE MEMORY AND ONLY ALLOCATES MEMORY AS NEEDED DURING THE ANALYSIS,
          THE MEMORY REQUIREMENT PRINTED HERE CAN ONLY BE VIEWED AS A GENERAL GUIDELINE BASED ON THE BEST
          KNOWLEDGE AVAILABLE AT THE BEGINNING OF A STEP BEFORE THE SOLUTION PROCESS HAS BEGUN.
      (2) THE ESTIMATE IS NORMALLY UPDATED AT THE BEGINNING OF EVERY STEP. IT IS THE MAXIMUM VALUE OF THE
          ESTIMATE FROM THE CURRENT STEP TO THE LAST STEP OF THE ANALYSIS, WITH UNSYMMETRIC SOLUTION TAKEN
          INTO ACCOUNT IF APPLICABLE. 
      (3) SINCE THE ESTIMATE IS BASED ON THE ACTIVE DEGREES OF FREEDOM IN THE FIRST ITERATION OF THE 
          CURRENT STEP, THE MEMORY ESTIMATE MIGHT BE SIGNIFICANTLY DIFFERENT THAN ACTUAL USAGE FOR 
          PROBLEMS WITH SUBSTANTIAL CHANGES IN ACTIVE DEGREES OF FREEDOM BETWEEN STEPS (OR EVEN WITHIN
          THE SAME STEP). EXAMPLES ARE: PROBLEMS WITH SIGNIFICANT CONTACT CHANGES, PROBLEMS WITH MODEL
          CHANGE, PROBLEMS WITH BOTH STATIC STEP AND STEADY STATE DYNAMIC PROCEDURES WHERE ACOUSTIC 
          ELEMENTS WILL ONLY BE ACTIVATED IN THE STEADY STATE DYNAMIC STEPS.
      (4) FOR MULTI-PROCESS EXECUTION, THE ESTIMATED VALUE OF FLOATING POINT OPERATIONS FOR EACH PROCESS
          IS BASED ON AN INITIAL SCHEDULING OF OPERATIONS AND MIGHT NOT REFLECT THE ACTUAL FLOATING 
          POINT OPERATIONS COMPLETED ON EACH PROCESS. OPERATIONS ARE DYNAMICALLY BALANCED DURING EXECUTION, 
          SO THE ACTUAL BALANCE OF OPERATIONS BETWEEN PROCESSES IS EXPECTED TO BE BETTER THAN THE ESTIMATE
          PRINTED HERE.
      (5) THE UPPER LIMIT OF MEMORY THAT CAN BE ALLOCATED BY ABAQUS WILL IN GENERAL DEPEND ON THE VALUE OF
          THE "MEMORY" PARAMETER AND THE AMOUNT OF PHYSICAL MEMORY AVAILABLE ON THE MACHINE. PLEASE SEE
          THE "ABAQUS ANALYSIS USER'S MANUAL" FOR MORE DETAILS. THE ACTUAL USAGE OF MEMORY AND OF DISK
          SPACE FOR SCRATCH DATA WILL DEPEND ON THIS UPPER LIMIT AS WELL AS THE MEMORY REQUIRED TO MINIMIZE
          I/O. IF THE MEMORY UPPER LIMIT IS GREATER THAN THE MEMORY REQUIRED TO MINIMIZE I/O, THEN THE ACTUAL
          MEMORY USAGE WILL BE CLOSE TO THE ESTIMATED "MEMORY TO MINIMIZE I/O" VALUE, AND THE SCRATCH DISK
          USAGE WILL BE CLOSE-TO-ZERO; OTHERWISE, THE ACTUAL MEMORY USED WILL BE CLOSE TO THE PREVIOUSLY
          MENTIONED MEMORY LIMIT, AND THE SCRATCH DISK USAGE WILL BE ROUGHLY PROPORTIONAL TO THE DIFFERENCE
          BETWEEN THE ESTIMATED "MEMORY TO MINIMIZE I/O" AND THE MEMORY UPPER LIMIT. HOWEVER ACCURATE
          ESTIMATE OF THE SCRATCH DISK SPACE IS NOT POSSIBLE.
      (6) USING "*RESTART, WRITE" CAN GENERATE A LARGE AMOUNT OF DATA WRITTEN IN THE WORK DIRECTORY.
1

   Abaqus 2020                                  Date 31-May-2021   Time 02:06:06
   For use by PURDUE UNIVERSITY under license from Dassault Systemes or its subsidiary.

                                                                                               STEP    2  INCREMENT    1
                                                                                          TIME COMPLETED IN THIS STEP   0.00    


                        S T E P       2     S T A T I C   A N A L Y S I S


                                                                                          

     AUTOMATIC TIME CONTROL WITH -
          A SUGGESTED INITIAL TIME INCREMENT OF                 1.00    
          AND A TOTAL TIME PERIOD OF                            10.0    
          THE MINIMUM TIME INCREMENT ALLOWED IS                1.000E-04
          THE MAXIMUM TIME INCREMENT ALLOWED IS                 1.00    

     LINEAR EQUATION SOLVER TYPE         DIRECT SPARSE

          LARGE DISPLACEMENT THEORY WILL BE USED
  
                   M E M O R Y   E S T I M A T E
  
 PROCESS      FLOATING PT       MINIMUM MEMORY        MEMORY TO
              OPERATIONS           REQUIRED          MINIMIZE I/O
             PER ITERATION           (MB)               (MB)
  
     1          7.56E+08               31                 74
  
 NOTE:
      (1) SINCE ABAQUS DOES NOT PRE-ALLOCATE MEMORY AND ONLY ALLOCATES MEMORY AS NEEDED DURING THE ANALYSIS,
          THE MEMORY REQUIREMENT PRINTED HERE CAN ONLY BE VIEWED AS A GENERAL GUIDELINE BASED ON THE BEST
          KNOWLEDGE AVAILABLE AT THE BEGINNING OF A STEP BEFORE THE SOLUTION PROCESS HAS BEGUN.
      (2) THE ESTIMATE IS NORMALLY UPDATED AT THE BEGINNING OF EVERY STEP. IT IS THE MAXIMUM VALUE OF THE
          ESTIMATE FROM THE CURRENT STEP TO THE LAST STEP OF THE ANALYSIS, WITH UNSYMMETRIC SOLUTION TAKEN
          INTO ACCOUNT IF APPLICABLE. 
      (3) SINCE THE ESTIMATE IS BASED ON THE ACTIVE DEGREES OF FREEDOM IN THE FIRST ITERATION OF THE 
          CURRENT STEP, THE MEMORY ESTIMATE MIGHT BE SIGNIFICANTLY DIFFERENT THAN ACTUAL USAGE FOR 
          PROBLEMS WITH SUBSTANTIAL CHANGES IN ACTIVE DEGREES OF FREEDOM BETWEEN STEPS (OR EVEN WITHIN
          THE SAME STEP). EXAMPLES ARE: PROBLEMS WITH SIGNIFICANT CONTACT CHANGES, PROBLEMS WITH MODEL
          CHANGE, PROBLEMS WITH BOTH STATIC STEP AND STEADY STATE DYNAMIC PROCEDURES WHERE ACOUSTIC 
          ELEMENTS WILL ONLY BE ACTIVATED IN THE STEADY STATE DYNAMIC STEPS.
      (4) FOR MULTI-PROCESS EXECUTION, THE ESTIMATED VALUE OF FLOATING POINT OPERATIONS FOR EACH PROCESS
          IS BASED ON AN INITIAL SCHEDULING OF OPERATIONS AND MIGHT NOT REFLECT THE ACTUAL FLOATING 
          POINT OPERATIONS COMPLETED ON EACH PROCESS. OPERATIONS ARE DYNAMICALLY BALANCED DURING EXECUTION, 
          SO THE ACTUAL BALANCE OF OPERATIONS BETWEEN PROCESSES IS EXPECTED TO BE BETTER THAN THE ESTIMATE
          PRINTED HERE.
      (5) THE UPPER LIMIT OF MEMORY THAT CAN BE ALLOCATED BY ABAQUS WILL IN GENERAL DEPEND ON THE VALUE OF
          THE "MEMORY" PARAMETER AND THE AMOUNT OF PHYSICAL MEMORY AVAILABLE ON THE MACHINE. PLEASE SEE
          THE "ABAQUS ANALYSIS USER'S MANUAL" FOR MORE DETAILS. THE ACTUAL USAGE OF MEMORY AND OF DISK
          SPACE FOR SCRATCH DATA WILL DEPEND ON THIS UPPER LIMIT AS WELL AS THE MEMORY REQUIRED TO MINIMIZE
          I/O. IF THE MEMORY UPPER LIMIT IS GREATER THAN THE MEMORY REQUIRED TO MINIMIZE I/O, THEN THE ACTUAL
          MEMORY USAGE WILL BE CLOSE TO THE ESTIMATED "MEMORY TO MINIMIZE I/O" VALUE, AND THE SCRATCH DISK
          USAGE WILL BE CLOSE-TO-ZERO; OTHERWISE, THE ACTUAL MEMORY USED WILL BE CLOSE TO THE PREVIOUSLY
          MENTIONED MEMORY LIMIT, AND THE SCRATCH DISK USAGE WILL BE ROUGHLY PROPORTIONAL TO THE DIFFERENCE
          BETWEEN THE ESTIMATED "MEMORY TO MINIMIZE I/O" AND THE MEMORY UPPER LIMIT. HOWEVER ACCURATE
          ESTIMATE OF THE SCRATCH DISK SPACE IS NOT POSSIBLE.
      (6) USING "*RESTART, WRITE" CAN GENERATE A LARGE AMOUNT OF DATA WRITTEN IN THE WORK DIRECTORY.
1

   Abaqus 2020                                  Date 31-May-2021   Time 02:08:00
   For use by PURDUE UNIVERSITY under license from Dassault Systemes or its subsidiary.

                                                                                               STEP    3  INCREMENT    1
                                                                                          TIME COMPLETED IN THIS STEP   0.00    


                        S T E P       3     S T A T I C   A N A L Y S I S


                                                                                          

     AUTOMATIC TIME CONTROL WITH -
          A SUGGESTED INITIAL TIME INCREMENT OF                 1.00    
          AND A TOTAL TIME PERIOD OF                            10.0    
          THE MINIMUM TIME INCREMENT ALLOWED IS                1.000E-04
          THE MAXIMUM TIME INCREMENT ALLOWED IS                 1.00    

     LINEAR EQUATION SOLVER TYPE         DIRECT SPARSE

          LARGE DISPLACEMENT THEORY WILL BE USED
  
                   M E M O R Y   E S T I M A T E
  
 PROCESS      FLOATING PT       MINIMUM MEMORY        MEMORY TO
              OPERATIONS           REQUIRED          MINIMIZE I/O
             PER ITERATION           (MB)               (MB)
  
     1          7.56E+08               29                 74
  
 NOTE:
      (1) SINCE ABAQUS DOES NOT PRE-ALLOCATE MEMORY AND ONLY ALLOCATES MEMORY AS NEEDED DURING THE ANALYSIS,
          THE MEMORY REQUIREMENT PRINTED HERE CAN ONLY BE VIEWED AS A GENERAL GUIDELINE BASED ON THE BEST
          KNOWLEDGE AVAILABLE AT THE BEGINNING OF A STEP BEFORE THE SOLUTION PROCESS HAS BEGUN.
      (2) THE ESTIMATE IS NORMALLY UPDATED AT THE BEGINNING OF EVERY STEP. IT IS THE MAXIMUM VALUE OF THE
          ESTIMATE FROM THE CURRENT STEP TO THE LAST STEP OF THE ANALYSIS, WITH UNSYMMETRIC SOLUTION TAKEN
          INTO ACCOUNT IF APPLICABLE. 
      (3) SINCE THE ESTIMATE IS BASED ON THE ACTIVE DEGREES OF FREEDOM IN THE FIRST ITERATION OF THE 
          CURRENT STEP, THE MEMORY ESTIMATE MIGHT BE SIGNIFICANTLY DIFFERENT THAN ACTUAL USAGE FOR 
          PROBLEMS WITH SUBSTANTIAL CHANGES IN ACTIVE DEGREES OF FREEDOM BETWEEN STEPS (OR EVEN WITHIN
          THE SAME STEP). EXAMPLES ARE: PROBLEMS WITH SIGNIFICANT CONTACT CHANGES, PROBLEMS WITH MODEL
          CHANGE, PROBLEMS WITH BOTH STATIC STEP AND STEADY STATE DYNAMIC PROCEDURES WHERE ACOUSTIC 
          ELEMENTS WILL ONLY BE ACTIVATED IN THE STEADY STATE DYNAMIC STEPS.
      (4) FOR MULTI-PROCESS EXECUTION, THE ESTIMATED VALUE OF FLOATING POINT OPERATIONS FOR EACH PROCESS
          IS BASED ON AN INITIAL SCHEDULING OF OPERATIONS AND MIGHT NOT REFLECT THE ACTUAL FLOATING 
          POINT OPERATIONS COMPLETED ON EACH PROCESS. OPERATIONS ARE DYNAMICALLY BALANCED DURING EXECUTION, 
          SO THE ACTUAL BALANCE OF OPERATIONS BETWEEN PROCESSES IS EXPECTED TO BE BETTER THAN THE ESTIMATE
          PRINTED HERE.
      (5) THE UPPER LIMIT OF MEMORY THAT CAN BE ALLOCATED BY ABAQUS WILL IN GENERAL DEPEND ON THE VALUE OF
          THE "MEMORY" PARAMETER AND THE AMOUNT OF PHYSICAL MEMORY AVAILABLE ON THE MACHINE. PLEASE SEE
          THE "ABAQUS ANALYSIS USER'S MANUAL" FOR MORE DETAILS. THE ACTUAL USAGE OF MEMORY AND OF DISK
          SPACE FOR SCRATCH DATA WILL DEPEND ON THIS UPPER LIMIT AS WELL AS THE MEMORY REQUIRED TO MINIMIZE
          I/O. IF THE MEMORY UPPER LIMIT IS GREATER THAN THE MEMORY REQUIRED TO MINIMIZE I/O, THEN THE ACTUAL
          MEMORY USAGE WILL BE CLOSE TO THE ESTIMATED "MEMORY TO MINIMIZE I/O" VALUE, AND THE SCRATCH DISK
          USAGE WILL BE CLOSE-TO-ZERO; OTHERWISE, THE ACTUAL MEMORY USED WILL BE CLOSE TO THE PREVIOUSLY
          MENTIONED MEMORY LIMIT, AND THE SCRATCH DISK USAGE WILL BE ROUGHLY PROPORTIONAL TO THE DIFFERENCE
          BETWEEN THE ESTIMATED "MEMORY TO MINIMIZE I/O" AND THE MEMORY UPPER LIMIT. HOWEVER ACCURATE
          ESTIMATE OF THE SCRATCH DISK SPACE IS NOT POSSIBLE.
      (6) USING "*RESTART, WRITE" CAN GENERATE A LARGE AMOUNT OF DATA WRITTEN IN THE WORK DIRECTORY.


          THE ANALYSIS HAS BEEN COMPLETED



                              ANALYSIS COMPLETE
                              WITH  11861 WARNING MESSAGES ON THE DAT FILE
                              AND       2 WARNING MESSAGES ON THE MSG FILE
                                        1 WARNINGS ARE FOR NEGATIVE EIGENVALUES



     JOB TIME SUMMARY
       USER TIME (SEC)      =   463.05    
       SYSTEM TIME (SEC)    =   7.8400    
       TOTAL CPU TIME (SEC) =   470.89    
       WALLCLOCK TIME (SEC) =        484
