1

   Abaqus 2020                                  Date 31-May-2021   Time 02:03:03
   For use by PURDUE UNIVERSITY under license from Dassault Systemes or its subsidiary.

                                                                                 
                                                                                 
 STEP    1     INCREMENT     1     STEP TIME    0.00    


                        S T E P       1     S T A T I C   A N A L Y S I S


                                                                                          

     AUTOMATIC TIME CONTROL WITH -
          A SUGGESTED INITIAL TIME INCREMENT OF                 1.00    
          AND A TOTAL TIME PERIOD OF                            10.0    
          THE MINIMUM TIME INCREMENT ALLOWED IS                1.000E-04
          THE MAXIMUM TIME INCREMENT ALLOWED IS                 1.00    

     LINEAR EQUATION SOLVER TYPE         DIRECT SPARSE

 CONVERGENCE TOLERANCE PARAMETERS FOR FORCE    
     CRITERION FOR RESIDUAL FORCE     FOR A NONLINEAR PROBLEM          5.000E-03
     CRITERION FOR DISP.    CORRECTION IN A NONLINEAR PROBLEM          1.000E-02
     INITIAL VALUE OF TIME AVERAGE FORCE                               1.000E-02
     AVERAGE FORCE     IS TIME AVERAGE FORCE    
     ALTERNATE CRIT. FOR RESIDUAL FORCE     FOR A NONLINEAR PROBLEM    2.000E-02
     CRITERION FOR ZERO FORCE     RELATIVE TO TIME AVRG. FORCE         1.000E-05
     CRITERION FOR RESIDUAL FORCE     WHEN THERE IS ZERO FLUX          1.000E-05
     CRITERION FOR DISP.    CORRECTION WHEN THERE IS ZERO FLUX         1.000E-03
     CRITERION FOR RESIDUAL FORCE     FOR A LINEAR INCREMENT           1.000E-08
     FIELD CONVERSION RATIO                                             1.00    
     CRITERION FOR ZERO FORCE     REL. TO TIME AVRG. MAX. FORCE        1.000E-05
     CRITERION FOR ZERO DISP.    RELATIVE TO CHARACTERISTIC LENGTH     1.000E-08

 CONVERGENCE TOLERANCE PARAMETERS FOR MOMENT   
     CRITERION FOR RESIDUAL MOMENT    FOR A NONLINEAR PROBLEM          5.000E-03
     CRITERION FOR ROTATION CORRECTION IN A NONLINEAR PROBLEM          1.000E-02
     INITIAL VALUE OF TIME AVERAGE MOMENT                              1.000E-02
     AVERAGE MOMENT    IS TIME AVERAGE MOMENT   
     ALTERNATE CRIT. FOR RESIDUAL MOMENT    FOR A NONLINEAR PROBLEM    2.000E-02
     CRITERION FOR ZERO MOMENT    RELATIVE TO TIME AVRG. MOMENT        1.000E-05
     CRITERION FOR RESIDUAL MOMENT    WHEN THERE IS ZERO FLUX          1.000E-05
     CRITERION FOR ROTATION CORRECTION WHEN THERE IS ZERO FLUX         1.000E-03
     CRITERION FOR RESIDUAL MOMENT    FOR A LINEAR INCREMENT           1.000E-08
     FIELD CONVERSION RATIO                                             1.00    
     CRITERION FOR ZERO MOMENT    REL. TO TIME AVRG. MAX. MOMENT       1.000E-05

 CONVERGENCE TOLERANCE PARAMETERS FOR CAV. VOL.
     CRITERION FOR RESIDUAL CAV. VOL. FOR A NONLINEAR PROBLEM          5.000E-03
     CRITERION FOR H.PRESS. CORRECTION IN A NONLINEAR PROBLEM          1.000E-02
     INITIAL VALUE OF TIME AVERAGE CAV. VOL.                           1.000E-02
     AVERAGE CAV. VOL. IS TIME AVERAGE CAV. VOL.
     ALTERNATE CRIT. FOR RESIDUAL CAV. VOL. FOR A NONLINEAR PROBLEM    2.000E-02
     CRITERION FOR ZERO CAV. VOL. RELATIVE TO TIME AVRG. CAV. VOL.     1.000E-05
     CRITERION FOR RESIDUAL CAV. VOL. WHEN THERE IS ZERO FLUX          1.000E-05
     CRITERION FOR H.PRESS. CORRECTION WHEN THERE IS ZERO FLUX         1.000E-03
     CRITERION FOR RESIDUAL CAV. VOL. FOR A LINEAR INCREMENT           1.000E-08
     FIELD CONVERSION RATIO                                             1.00    
     CRITERION FOR ZERO CAV. VOL. REL. TO TIME AVRG. MAX. CAV. VOL.    1.000E-05

     VOLUMETRIC STRAIN COMPATIBILITY TOLERANCE FOR HYBRID SOLIDS       1.000E-05
     AXIAL STRAIN COMPATIBILITY TOLERANCE FOR HYBRID BEAMS             1.000E-05
     TRANS. SHEAR STRAIN COMPATIBILITY TOLERANCE FOR HYBRID BEAMS      1.000E-05
     SOFT CONTACT CONSTRAINT COMPATIBILITY TOLERANCE FOR P>P0          5.000E-03
     SOFT CONTACT CONSTRAINT COMPATIBILITY TOLERANCE FOR P=0.0         0.100    
     CONTACT FORCE ERROR TOLERANCE FOR CONVERT SDI=YES                 1.00    
     DISPLACEMENT COMPATIBILITY TOLERANCE FOR DCOUP ELEMENTS           1.000E-05
     ROTATION COMPATIBILITY TOLERANCE FOR DCOUP ELEMENTS               1.000E-05

 EQUILIBRIUM WILL BE CHECKED FOR SEVERE DISCONTINUITY ITERATIONS

 TIME INCREMENTATION CONTROL PARAMETERS:
     FIRST EQUILIBRIUM ITERATION FOR CONSECUTIVE DIVERGENCE CHECK              4
     EQUILIBRIUM ITERATION AT WHICH LOG. CONVERGENCE RATE CHECK BEGINS         8
     EQUILIBRIUM ITERATION AFTER WHICH ALTERNATE RESIDUAL IS USED              9
     MAXIMUM EQUILIBRIUM ITERATIONS ALLOWED                                   16
     EQUILIBRIUM ITERATION COUNT FOR CUT-BACK IN NEXT INCREMENT               10
     MAXIMUM EQUILIB. ITERS IN TWO INCREMENTS FOR TIME INCREMENT INCREASE      4
     MAXIMUM ITERATIONS FOR SEVERE DISCONTINUITIES                            50
     MAXIMUM ATTEMPTS ALLOWED IN AN INCREMENT                                  5
     MAXIMUM DISCON. ITERS IN TWO INCREMENTS FOR TIME INCREMENT INCREASE      50
     MAXIMUM CONTACT AUGMENTATIONS FOR *SURFACE BEHAVIOR,AUGMENTED LAGRANGE   50
     CUT-BACK FACTOR AFTER DIVERGENCE                                 0.2500    
     CUT-BACK FACTOR FOR TOO SLOW CONVERGENCE                         0.5000    
     CUT-BACK FACTOR AFTER TOO MANY EQUILIBRIUM ITERATIONS            0.7500    
     CUT-BACK FACTOR AFTER TOO MANY SEVERE DISCONTINUITY ITERATIONS   0.2500    
     CUT-BACK FACTOR AFTER PROBLEMS IN ELEMENT ASSEMBLY               0.2500    
     INCREASE FACTOR AFTER TWO INCREMENTS THAT CONVERGE QUICKLY        1.500    
     MAX. TIME INCREMENT INCREASE FACTOR ALLOWED                       1.500    
     MAX. TIME INCREMENT INCREASE FACTOR ALLOWED (DYNAMICS)            1.250    
     MAX. TIME INCREMENT INCREASE FACTOR ALLOWED (DIFFUSION)           2.000    
     MINIMUM TIME INCREMENT RATIO FOR EXTRAPOLATION TO OCCUR          0.1000    
     MAX. RATIO OF TIME INCREMENT TO STABILITY LIMIT                   1.000    
     FRACTION OF STABILITY LIMIT FOR NEW TIME INCREMENT               0.9500    
     TIME INCREMENT INCREASE FACTOR BEFORE A TIME POINT                1.000    
     GLOBAL STABILIZATION CONTROL IS NOT USED

          PRINT OF INCREMENT NUMBER, TIME, ETC., EVERY    1  INCREMENTS

     THE MAXIMUM NUMBER OF INCREMENTS IN THIS STEP IS                     100

          LARGE DISPLACEMENT THEORY WILL BE USED

     LINEAR EXTRAPOLATION WILL BE USED

     CHARACTERISTIC ELEMENT LENGTH     0.222    

     DETAILS REGARDING ACTUAL SOLUTION WAVEFRONT REQUESTED

     DETAILED OUTPUT OF DIAGNOSTICS TO DATABASE REQUESTED

     PRINT OF INCREMENT NUMBER, TIME, ETC., TO THE MESSAGE FILE EVERY     1  INCREMENTS

     COLLECTING MODEL CONSTRAINT INFORMATION FOR OVERCONSTRAINT CHECKS

     COLLECTING STEP CONSTRAINT INFORMATION FOR OVERCONSTRAINT CHECKS
 ***************************************************
 deformation gradient
   1.00000000000000       0.000000000000000E+000  0.000000000000000E+000
  0.000000000000000E+000   1.00000000000000       0.000000000000000E+000
  0.000000000000000E+000  0.000000000000000E+000   1.00000000000000     
 J
   1.00000000000000     
 C
   1.00000000000000       0.000000000000000E+000  0.000000000000000E+000
  0.000000000000000E+000   1.00000000000000       0.000000000000000E+000
  0.000000000000000E+000  0.000000000000000E+000   1.00000000000000     
 Chat
   1.00000000000000       0.000000000000000E+000  0.000000000000000E+000
  0.000000000000000E+000   1.00000000000000       0.000000000000000E+000
  0.000000000000000E+000  0.000000000000000E+000   1.00000000000000     
 I1hat, I2hat, I4ahat, I4shat
   3.00000000000000        3.00000000000000        1.00000000000000     
   1.00000000000000     
 S^hat
  3.063952448142485E-003  0.000000000000000E+000  0.000000000000000E+000
  0.000000000000000E+000  3.549961814062381E-003  0.000000000000000E+000
  0.000000000000000E+000  0.000000000000000E+000  2.620871371385936E-003
 S_iso
 -1.430952146046845E-005  0.000000000000000E+000  0.000000000000000E+000
  0.000000000000000E+000  4.716998444594279E-004  0.000000000000000E+000
  0.000000000000000E+000  0.000000000000000E+000 -4.573905982170178E-004
 S
 -1.430952146046845E-005  0.000000000000000E+000  0.000000000000000E+000
  0.000000000000000E+000  4.716998444594279E-004  0.000000000000000E+000
  0.000000000000000E+000  0.000000000000000E+000 -4.573905982170178E-004
 sigma
 -1.430952146046845E-005  0.000000000000000E+000  0.000000000000000E+000
  0.000000000000000E+000  4.716998444594279E-004  0.000000000000000E+000
  0.000000000000000E+000  0.000000000000000E+000 -4.573905982170178E-004
 Psi24a
  5.115989765905884E-005
 CChat
  4.913165611957747E-003  0.000000000000000E+000  0.000000000000000E+000
  0.000000000000000E+000  7.480457292745978E-003  0.000000000000000E+000
  0.000000000000000E+000  0.000000000000000E+000  6.001448660827543E-003
  0.000000000000000E+000 -8.949645729622181E-004  0.000000000000000E+000
 -8.949645729622181E-004  0.000000000000000E+000  0.000000000000000E+000
  0.000000000000000E+000  0.000000000000000E+000  0.000000000000000E+000
  0.000000000000000E+000  0.000000000000000E+000 -8.949645729622181E-004
  0.000000000000000E+000  0.000000000000000E+000  0.000000000000000E+000
 -8.949645729622181E-004  0.000000000000000E+000  0.000000000000000E+000
  0.000000000000000E+000 -8.949645729622181E-004  0.000000000000000E+000
 -8.949645729622181E-004  0.000000000000000E+000  0.000000000000000E+000
  0.000000000000000E+000  0.000000000000000E+000  0.000000000000000E+000
  7.480457292745978E-003  0.000000000000000E+000  0.000000000000000E+000
  0.000000000000000E+000  6.592019440194889E-003  0.000000000000000E+000
  0.000000000000000E+000  0.000000000000000E+000  6.668901999676602E-003
  0.000000000000000E+000  0.000000000000000E+000  0.000000000000000E+000
  0.000000000000000E+000  0.000000000000000E+000 -8.949645729622181E-004
  0.000000000000000E+000 -8.949645729622181E-004  0.000000000000000E+000
  0.000000000000000E+000  0.000000000000000E+000 -8.949645729622181E-004
  0.000000000000000E+000  0.000000000000000E+000  0.000000000000000E+000
 -8.949645729622181E-004  0.000000000000000E+000  0.000000000000000E+000
  0.000000000000000E+000  0.000000000000000E+000  0.000000000000000E+000
  0.000000000000000E+000  0.000000000000000E+000 -8.949645729622181E-004
  0.000000000000000E+000 -8.949645729622181E-004  0.000000000000000E+000
  6.001448660827543E-003  0.000000000000000E+000  0.000000000000000E+000
  0.000000000000000E+000  6.668901999676602E-003  0.000000000000000E+000
  0.000000000000000E+000  0.000000000000000E+000  3.611854108983654E-003
 dShat/dC
 -6.092625463123135E-004  0.000000000000000E+000  0.000000000000000E+000
  0.000000000000000E+000  2.833320879132020E-004  0.000000000000000E+000
  0.000000000000000E+000  0.000000000000000E+000  2.870234546245528E-004
  0.000000000000000E+000 -4.474822864811090E-004  0.000000000000000E+000
 -4.474822864811090E-004  0.000000000000000E+000  0.000000000000000E+000
  0.000000000000000E+000  0.000000000000000E+000  0.000000000000000E+000
  0.000000000000000E+000  0.000000000000000E+000 -4.474822864811090E-004
  0.000000000000000E+000  0.000000000000000E+000  0.000000000000000E+000
 -4.474822864811090E-004  0.000000000000000E+000  0.000000000000000E+000
  0.000000000000000E+000 -4.474822864811090E-004  0.000000000000000E+000
 -4.474822864811090E-004  0.000000000000000E+000  0.000000000000000E+000
  0.000000000000000E+000  0.000000000000000E+000  0.000000000000000E+000
  6.743832940818023E-004  0.000000000000000E+000  0.000000000000000E+000
  0.000000000000000E+000 -1.608868383623429E-004  0.000000000000000E+000
  0.000000000000000E+000  0.000000000000000E+000  6.207501240490815E-004
  0.000000000000000E+000  0.000000000000000E+000  0.000000000000000E+000
  0.000000000000000E+000  0.000000000000000E+000 -4.474822864811090E-004
  0.000000000000000E+000 -4.474822864811090E-004  0.000000000000000E+000
  0.000000000000000E+000  0.000000000000000E+000 -4.474822864811090E-004
  0.000000000000000E+000  0.000000000000000E+000  0.000000000000000E+000
 -4.474822864811090E-004  0.000000000000000E+000  0.000000000000000E+000
  0.000000000000000E+000  0.000000000000000E+000  0.000000000000000E+000
  0.000000000000000E+000  0.000000000000000E+000 -4.474822864811090E-004
  0.000000000000000E+000 -4.474822864811090E-004  0.000000000000000E+000
 -6.512102187741526E-005  0.000000000000000E+000  0.000000000000000E+000
  0.000000000000000E+000 -1.224455586214868E-004  0.000000000000000E+000
  0.000000000000000E+000  0.000000000000000E+000 -9.077738212973922E-004
 CCvol
  2.000000000000000E-002  0.000000000000000E+000  0.000000000000000E+000
  0.000000000000000E+000  2.000000000000000E-002  0.000000000000000E+000
  0.000000000000000E+000  0.000000000000000E+000  2.000000000000000E-002
  0.000000000000000E+000  0.000000000000000E+000  0.000000000000000E+000
  0.000000000000000E+000  0.000000000000000E+000  0.000000000000000E+000
  0.000000000000000E+000  0.000000000000000E+000  0.000000000000000E+000
  0.000000000000000E+000  0.000000000000000E+000  0.000000000000000E+000
  0.000000000000000E+000  0.000000000000000E+000  0.000000000000000E+000
  0.000000000000000E+000  0.000000000000000E+000  0.000000000000000E+000
  0.000000000000000E+000  0.000000000000000E+000  0.000000000000000E+000
  0.000000000000000E+000  0.000000000000000E+000  0.000000000000000E+000
  0.000000000000000E+000  0.000000000000000E+000  0.000000000000000E+000
  2.000000000000000E-002  0.000000000000000E+000  0.000000000000000E+000
  0.000000000000000E+000  2.000000000000000E-002  0.000000000000000E+000
  0.000000000000000E+000  0.000000000000000E+000  2.000000000000000E-002
  0.000000000000000E+000  0.000000000000000E+000  0.000000000000000E+000
  0.000000000000000E+000  0.000000000000000E+000  0.000000000000000E+000
  0.000000000000000E+000  0.000000000000000E+000  0.000000000000000E+000
  0.000000000000000E+000  0.000000000000000E+000  0.000000000000000E+000
  0.000000000000000E+000  0.000000000000000E+000  0.000000000000000E+000
  0.000000000000000E+000  0.000000000000000E+000  0.000000000000000E+000
  0.000000000000000E+000  0.000000000000000E+000  0.000000000000000E+000
  0.000000000000000E+000  0.000000000000000E+000  0.000000000000000E+000
  0.000000000000000E+000  0.000000000000000E+000  0.000000000000000E+000
  2.000000000000000E-002  0.000000000000000E+000  0.000000000000000E+000
  0.000000000000000E+000  2.000000000000000E-002  0.000000000000000E+000
  0.000000000000000E+000  0.000000000000000E+000  2.000000000000000E-002
 CCiso
  2.930841504825026E-003  0.000000000000000E+000  0.000000000000000E+000
  0.000000000000000E+000 -1.764499419532586E-003  0.000000000000000E+000
  0.000000000000000E+000  0.000000000000000E+000 -1.137723039199551E-003
  0.000000000000000E+000  2.183297396640736E-003  0.000000000000000E+000
  2.183297396640736E-003  0.000000000000000E+000  0.000000000000000E+000
  0.000000000000000E+000  0.000000000000000E+000  0.000000000000000E+000
  0.000000000000000E+000  0.000000000000000E+000  2.183297396640736E-003
  0.000000000000000E+000  0.000000000000000E+000  0.000000000000000E+000
  2.183297396640736E-003  0.000000000000000E+000  0.000000000000000E+000
  0.000000000000000E+000  2.183297396640736E-003  0.000000000000000E+000
  2.183297396640736E-003  0.000000000000000E+000  0.000000000000000E+000
  0.000000000000000E+000  0.000000000000000E+000  0.000000000000000E+000
 -1.764499419532586E-003  0.000000000000000E+000  0.000000000000000E+000
  0.000000000000000E+000  2.397478001182296E-003  0.000000000000000E+000
  0.000000000000000E+000  0.000000000000000E+000 -1.576378366290431E-003
  0.000000000000000E+000  0.000000000000000E+000  0.000000000000000E+000
  0.000000000000000E+000  0.000000000000000E+000  2.183297396640736E-003
  0.000000000000000E+000  2.183297396640736E-003  0.000000000000000E+000
  0.000000000000000E+000  0.000000000000000E+000  2.183297396640736E-003
  0.000000000000000E+000  0.000000000000000E+000  0.000000000000000E+000
  2.183297396640736E-003  0.000000000000000E+000  0.000000000000000E+000
  0.000000000000000E+000  0.000000000000000E+000  0.000000000000000E+000
  0.000000000000000E+000  0.000000000000000E+000  2.183297396640736E-003
  0.000000000000000E+000  2.183297396640736E-003  0.000000000000000E+000
 -1.137723039199552E-003  0.000000000000000E+000  0.000000000000000E+000
  0.000000000000000E+000 -1.576378366290431E-003  0.000000000000000E+000
  0.000000000000000E+000  0.000000000000000E+000  3.628882694473997E-003
 CC_ref
  2.293084150482503E-002  0.000000000000000E+000  0.000000000000000E+000
  0.000000000000000E+000  1.823550058046742E-002  0.000000000000000E+000
  0.000000000000000E+000  0.000000000000000E+000  1.886227696080045E-002
  0.000000000000000E+000  2.183297396640736E-003  0.000000000000000E+000
  2.183297396640736E-003  0.000000000000000E+000  0.000000000000000E+000
  0.000000000000000E+000  0.000000000000000E+000  0.000000000000000E+000
  0.000000000000000E+000  0.000000000000000E+000  2.183297396640736E-003
  0.000000000000000E+000  0.000000000000000E+000  0.000000000000000E+000
  2.183297396640736E-003  0.000000000000000E+000  0.000000000000000E+000
  0.000000000000000E+000  2.183297396640736E-003  0.000000000000000E+000
  2.183297396640736E-003  0.000000000000000E+000  0.000000000000000E+000
  0.000000000000000E+000  0.000000000000000E+000  0.000000000000000E+000
  1.823550058046742E-002  0.000000000000000E+000  0.000000000000000E+000
  0.000000000000000E+000  2.239747800118230E-002  0.000000000000000E+000
  0.000000000000000E+000  0.000000000000000E+000  1.842362163370957E-002
  0.000000000000000E+000  0.000000000000000E+000  0.000000000000000E+000
  0.000000000000000E+000  0.000000000000000E+000  2.183297396640736E-003
  0.000000000000000E+000  2.183297396640736E-003  0.000000000000000E+000
  0.000000000000000E+000  0.000000000000000E+000  2.183297396640736E-003
  0.000000000000000E+000  0.000000000000000E+000  0.000000000000000E+000
  2.183297396640736E-003  0.000000000000000E+000  0.000000000000000E+000
  0.000000000000000E+000  0.000000000000000E+000  0.000000000000000E+000
  0.000000000000000E+000  0.000000000000000E+000  2.183297396640736E-003
  0.000000000000000E+000  2.183297396640736E-003  0.000000000000000E+000
  1.886227696080045E-002  0.000000000000000E+000  0.000000000000000E+000
  0.000000000000000E+000  1.842362163370957E-002  0.000000000000000E+000
  0.000000000000000E+000  0.000000000000000E+000  2.362888269447400E-002
 DDSDDE
  2.290222246190409E-002  1.823550058046742E-002  1.886227696080045E-002
  0.000000000000000E+000  0.000000000000000E+000  0.000000000000000E+000
  1.823550058046742E-002  2.334087769010115E-002  1.842362163370957E-002
  0.000000000000000E+000  0.000000000000000E+000  0.000000000000000E+000
  1.886227696080045E-002  1.842362163370957E-002  2.271410149803996E-002
  0.000000000000000E+000  0.000000000000000E+000  0.000000000000000E+000
  0.000000000000000E+000  0.000000000000000E+000  0.000000000000000E+000
  2.411992558140216E-003  0.000000000000000E+000  0.000000000000000E+000
  0.000000000000000E+000  0.000000000000000E+000  0.000000000000000E+000
  0.000000000000000E+000  1.947447336801993E-003  0.000000000000000E+000
  0.000000000000000E+000  0.000000000000000E+000  0.000000000000000E+000
  0.000000000000000E+000  0.000000000000000E+000  2.190452019761941E-003


  INCREMENT     1 STARTS. ATTEMPT NUMBER  1, TIME INCREMENT   1.00    
 ***************************************************
 deformation gradient
   1.00000000000000       0.000000000000000E+000  0.000000000000000E+000
  0.000000000000000E+000   1.00000000000000       0.000000000000000E+000
  0.000000000000000E+000  0.000000000000000E+000   1.00000000000000     
 J
   1.00000000000000     
 C
   1.00000000000000       0.000000000000000E+000  0.000000000000000E+000
  0.000000000000000E+000   1.00000000000000       0.000000000000000E+000
  0.000000000000000E+000  0.000000000000000E+000   1.00000000000000     
 Chat
   1.00000000000000       0.000000000000000E+000  0.000000000000000E+000
  0.000000000000000E+000   1.00000000000000       0.000000000000000E+000
  0.000000000000000E+000  0.000000000000000E+000   1.00000000000000     
 I1hat, I2hat, I4ahat, I4shat
   3.00000000000000        3.00000000000000        1.00000000000000     
   1.00000000000000     
 S^hat
  3.063952448142485E-003  0.000000000000000E+000  0.000000000000000E+000
  0.000000000000000E+000  3.549961814062381E-003  0.000000000000000E+000
  0.000000000000000E+000  0.000000000000000E+000  2.620871371385936E-003
 S_iso
 -1.430952146046845E-005  0.000000000000000E+000  0.000000000000000E+000
  0.000000000000000E+000  4.716998444594279E-004  0.000000000000000E+000
  0.000000000000000E+000  0.000000000000000E+000 -4.573905982170178E-004
 S
 -1.430952146046845E-005  0.000000000000000E+000  0.000000000000000E+000
  0.000000000000000E+000  4.716998444594279E-004  0.000000000000000E+000
  0.000000000000000E+000  0.000000000000000E+000 -4.573905982170178E-004
 sigma
 -1.430952146046845E-005  0.000000000000000E+000  0.000000000000000E+000
  0.000000000000000E+000  4.716998444594279E-004  0.000000000000000E+000
  0.000000000000000E+000  0.000000000000000E+000 -4.573905982170178E-004
 Psi24a
  5.115989765905884E-005
 CChat
  4.913165611957747E-003  0.000000000000000E+000  0.000000000000000E+000
  0.000000000000000E+000  7.480457292745978E-003  0.000000000000000E+000
  0.000000000000000E+000  0.000000000000000E+000  6.001448660827543E-003
  0.000000000000000E+000 -8.949645729622181E-004  0.000000000000000E+000
 -8.949645729622181E-004  0.000000000000000E+000  0.000000000000000E+000
  0.000000000000000E+000  0.000000000000000E+000  0.000000000000000E+000
  0.000000000000000E+000  0.000000000000000E+000 -8.949645729622181E-004
  0.000000000000000E+000  0.000000000000000E+000  0.000000000000000E+000
 -8.949645729622181E-004  0.000000000000000E+000  0.000000000000000E+000
  0.000000000000000E+000 -8.949645729622181E-004  0.000000000000000E+000
 -8.949645729622181E-004  0.000000000000000E+000  0.000000000000000E+000
  0.000000000000000E+000  0.000000000000000E+000  0.000000000000000E+000
  7.480457292745978E-003  0.000000000000000E+000  0.000000000000000E+000
  0.000000000000000E+000  6.592019440194889E-003  0.000000000000000E+000
  0.000000000000000E+000  0.000000000000000E+000  6.668901999676602E-003
  0.000000000000000E+000  0.000000000000000E+000  0.000000000000000E+000
  0.000000000000000E+000  0.000000000000000E+000 -8.949645729622181E-004
  0.000000000000000E+000 -8.949645729622181E-004  0.000000000000000E+000
  0.000000000000000E+000  0.000000000000000E+000 -8.949645729622181E-004
  0.000000000000000E+000  0.000000000000000E+000  0.000000000000000E+000
 -8.949645729622181E-004  0.000000000000000E+000  0.000000000000000E+000
  0.000000000000000E+000  0.000000000000000E+000  0.000000000000000E+000
  0.000000000000000E+000  0.000000000000000E+000 -8.949645729622181E-004
  0.000000000000000E+000 -8.949645729622181E-004  0.000000000000000E+000
  6.001448660827543E-003  0.000000000000000E+000  0.000000000000000E+000
  0.000000000000000E+000  6.668901999676602E-003  0.000000000000000E+000
  0.000000000000000E+000  0.000000000000000E+000  3.611854108983654E-003
 dShat/dC
 -6.092625463123135E-004  0.000000000000000E+000  0.000000000000000E+000
  0.000000000000000E+000  2.833320879132020E-004  0.000000000000000E+000
  0.000000000000000E+000  0.000000000000000E+000  2.870234546245528E-004
  0.000000000000000E+000 -4.474822864811090E-004  0.000000000000000E+000
 -4.474822864811090E-004  0.000000000000000E+000  0.000000000000000E+000
  0.000000000000000E+000  0.000000000000000E+000  0.000000000000000E+000
  0.000000000000000E+000  0.000000000000000E+000 -4.474822864811090E-004
  0.000000000000000E+000  0.000000000000000E+000  0.000000000000000E+000
 -4.474822864811090E-004  0.000000000000000E+000  0.000000000000000E+000
  0.000000000000000E+000 -4.474822864811090E-004  0.000000000000000E+000
 -4.474822864811090E-004  0.000000000000000E+000  0.000000000000000E+000
  0.000000000000000E+000  0.000000000000000E+000  0.000000000000000E+000
  6.743832940818023E-004  0.000000000000000E+000  0.000000000000000E+000
  0.000000000000000E+000 -1.608868383623429E-004  0.000000000000000E+000
  0.000000000000000E+000  0.000000000000000E+000  6.207501240490815E-004
  0.000000000000000E+000  0.000000000000000E+000  0.000000000000000E+000
  0.000000000000000E+000  0.000000000000000E+000 -4.474822864811090E-004
  0.000000000000000E+000 -4.474822864811090E-004  0.000000000000000E+000
  0.000000000000000E+000  0.000000000000000E+000 -4.474822864811090E-004
  0.000000000000000E+000  0.000000000000000E+000  0.000000000000000E+000
 -4.474822864811090E-004  0.000000000000000E+000  0.000000000000000E+000
  0.000000000000000E+000  0.000000000000000E+000  0.000000000000000E+000
  0.000000000000000E+000  0.000000000000000E+000 -4.474822864811090E-004
  0.000000000000000E+000 -4.474822864811090E-004  0.000000000000000E+000
 -6.512102187741526E-005  0.000000000000000E+000  0.000000000000000E+000
  0.000000000000000E+000 -1.224455586214868E-004  0.000000000000000E+000
  0.000000000000000E+000  0.000000000000000E+000 -9.077738212973922E-004
 CCvol
  2.000000000000000E-002  0.000000000000000E+000  0.000000000000000E+000
  0.000000000000000E+000  2.000000000000000E-002  0.000000000000000E+000
  0.000000000000000E+000  0.000000000000000E+000  2.000000000000000E-002
  0.000000000000000E+000  0.000000000000000E+000  0.000000000000000E+000
  0.000000000000000E+000  0.000000000000000E+000  0.000000000000000E+000
  0.000000000000000E+000  0.000000000000000E+000  0.000000000000000E+000
  0.000000000000000E+000  0.000000000000000E+000  0.000000000000000E+000
  0.000000000000000E+000  0.000000000000000E+000  0.000000000000000E+000
  0.000000000000000E+000  0.000000000000000E+000  0.000000000000000E+000
  0.000000000000000E+000  0.000000000000000E+000  0.000000000000000E+000
  0.000000000000000E+000  0.000000000000000E+000  0.000000000000000E+000
  0.000000000000000E+000  0.000000000000000E+000  0.000000000000000E+000
  2.000000000000000E-002  0.000000000000000E+000  0.000000000000000E+000
  0.000000000000000E+000  2.000000000000000E-002  0.000000000000000E+000
  0.000000000000000E+000  0.000000000000000E+000  2.000000000000000E-002
  0.000000000000000E+000  0.000000000000000E+000  0.000000000000000E+000
  0.000000000000000E+000  0.000000000000000E+000  0.000000000000000E+000
  0.000000000000000E+000  0.000000000000000E+000  0.000000000000000E+000
  0.000000000000000E+000  0.000000000000000E+000  0.000000000000000E+000
  0.000000000000000E+000  0.000000000000000E+000  0.000000000000000E+000
  0.000000000000000E+000  0.000000000000000E+000  0.000000000000000E+000
  0.000000000000000E+000  0.000000000000000E+000  0.000000000000000E+000
  0.000000000000000E+000  0.000000000000000E+000  0.000000000000000E+000
  0.000000000000000E+000  0.000000000000000E+000  0.000000000000000E+000
  2.000000000000000E-002  0.000000000000000E+000  0.000000000000000E+000
  0.000000000000000E+000  2.000000000000000E-002  0.000000000000000E+000
  0.000000000000000E+000  0.000000000000000E+000  2.000000000000000E-002
 CCiso
  2.930841504825026E-003  0.000000000000000E+000  0.000000000000000E+000
  0.000000000000000E+000 -1.764499419532586E-003  0.000000000000000E+000
  0.000000000000000E+000  0.000000000000000E+000 -1.137723039199551E-003
  0.000000000000000E+000  2.183297396640736E-003  0.000000000000000E+000
  2.183297396640736E-003  0.000000000000000E+000  0.000000000000000E+000
  0.000000000000000E+000  0.000000000000000E+000  0.000000000000000E+000
  0.000000000000000E+000  0.000000000000000E+000  2.183297396640736E-003
  0.000000000000000E+000  0.000000000000000E+000  0.000000000000000E+000
  2.183297396640736E-003  0.000000000000000E+000  0.000000000000000E+000
  0.000000000000000E+000  2.183297396640736E-003  0.000000000000000E+000
  2.183297396640736E-003  0.000000000000000E+000  0.000000000000000E+000
  0.000000000000000E+000  0.000000000000000E+000  0.000000000000000E+000
 -1.764499419532586E-003  0.000000000000000E+000  0.000000000000000E+000
  0.000000000000000E+000  2.397478001182296E-003  0.000000000000000E+000
  0.000000000000000E+000  0.000000000000000E+000 -1.576378366290431E-003
  0.000000000000000E+000  0.000000000000000E+000  0.000000000000000E+000
  0.000000000000000E+000  0.000000000000000E+000  2.183297396640736E-003
  0.000000000000000E+000  2.183297396640736E-003  0.000000000000000E+000
  0.000000000000000E+000  0.000000000000000E+000  2.183297396640736E-003
  0.000000000000000E+000  0.000000000000000E+000  0.000000000000000E+000
  2.183297396640736E-003  0.000000000000000E+000  0.000000000000000E+000
  0.000000000000000E+000  0.000000000000000E+000  0.000000000000000E+000
  0.000000000000000E+000  0.000000000000000E+000  2.183297396640736E-003
  0.000000000000000E+000  2.183297396640736E-003  0.000000000000000E+000
 -1.137723039199552E-003  0.000000000000000E+000  0.000000000000000E+000
  0.000000000000000E+000 -1.576378366290431E-003  0.000000000000000E+000
  0.000000000000000E+000  0.000000000000000E+000  3.628882694473997E-003
 CC_ref
  2.293084150482503E-002  0.000000000000000E+000  0.000000000000000E+000
  0.000000000000000E+000  1.823550058046742E-002  0.000000000000000E+000
  0.000000000000000E+000  0.000000000000000E+000  1.886227696080045E-002
  0.000000000000000E+000  2.183297396640736E-003  0.000000000000000E+000
  2.183297396640736E-003  0.000000000000000E+000  0.000000000000000E+000
  0.000000000000000E+000  0.000000000000000E+000  0.000000000000000E+000
  0.000000000000000E+000  0.000000000000000E+000  2.183297396640736E-003
  0.000000000000000E+000  0.000000000000000E+000  0.000000000000000E+000
  2.183297396640736E-003  0.000000000000000E+000  0.000000000000000E+000
  0.000000000000000E+000  2.183297396640736E-003  0.000000000000000E+000
  2.183297396640736E-003  0.000000000000000E+000  0.000000000000000E+000
  0.000000000000000E+000  0.000000000000000E+000  0.000000000000000E+000
  1.823550058046742E-002  0.000000000000000E+000  0.000000000000000E+000
  0.000000000000000E+000  2.239747800118230E-002  0.000000000000000E+000
  0.000000000000000E+000  0.000000000000000E+000  1.842362163370957E-002
  0.000000000000000E+000  0.000000000000000E+000  0.000000000000000E+000
  0.000000000000000E+000  0.000000000000000E+000  2.183297396640736E-003
  0.000000000000000E+000  2.183297396640736E-003  0.000000000000000E+000
  0.000000000000000E+000  0.000000000000000E+000  2.183297396640736E-003
  0.000000000000000E+000  0.000000000000000E+000  0.000000000000000E+000
  2.183297396640736E-003  0.000000000000000E+000  0.000000000000000E+000
  0.000000000000000E+000  0.000000000000000E+000  0.000000000000000E+000
  0.000000000000000E+000  0.000000000000000E+000  2.183297396640736E-003
  0.000000000000000E+000  2.183297396640736E-003  0.000000000000000E+000
  1.886227696080045E-002  0.000000000000000E+000  0.000000000000000E+000
  0.000000000000000E+000  1.842362163370957E-002  0.000000000000000E+000
  0.000000000000000E+000  0.000000000000000E+000  2.362888269447400E-002
 DDSDDE
  2.290222246190409E-002  1.823550058046742E-002  1.886227696080045E-002
  0.000000000000000E+000  0.000000000000000E+000  0.000000000000000E+000
  1.823550058046742E-002  2.334087769010115E-002  1.842362163370957E-002
  0.000000000000000E+000  0.000000000000000E+000  0.000000000000000E+000
  1.886227696080045E-002  1.842362163370957E-002  2.271410149803996E-002
  0.000000000000000E+000  0.000000000000000E+000  0.000000000000000E+000
  0.000000000000000E+000  0.000000000000000E+000  0.000000000000000E+000
  2.411992558140216E-003  0.000000000000000E+000  0.000000000000000E+000
  0.000000000000000E+000  0.000000000000000E+000  0.000000000000000E+000
  0.000000000000000E+000  1.947447336801993E-003  0.000000000000000E+000
  0.000000000000000E+000  0.000000000000000E+000  0.000000000000000E+000
  0.000000000000000E+000  0.000000000000000E+000  2.190452019761941E-003

  NUMBER OF EQUATIONS =     14836     NUMBER OF RHS =    1
  NUMBER OF FLOATING PT. OPERATIONS =  7.56E+08

     CHECK POINT   START OF SOLVER    

     CHECK POINT  END OF SOLVER       

       ELAPSED USER TIME (SEC)      =  0.25000    
       ELAPSED SYSTEM TIME (SEC)    =  4.00000E-02
       ELAPSED TOTAL CPU TIME (SEC) =  0.29000    
       ELAPSED WALLCLOCK TIME (SEC) =          0
 ***************************************************
 deformation gradient
   1.00265625048728       4.635778754916545E-003 -0.116484907999791     
  3.315942367370133E-003   1.00361320469485      -0.159103635381099     
  0.110205476167767       0.147654773755233        1.01350355002808     
 J
   1.05615196731090     
 C
   1.01890978087760       2.651045144317696E-002 -6.875163401707310E-003
  2.651045144317696E-002   1.03256442690313      -1.269838359659292E-002
 -6.875163401707310E-003 -1.269838359659292E-002   1.06113662510959     
 Chat
  0.982467340907546       2.556227570335352E-002 -6.629265546712513E-003
  2.556227570335352E-002  0.995633613352379      -1.224421180374100E-002
 -6.629265546712513E-003 -1.224421180374100E-002   1.02318389515613     
 I1hat, I2hat, I4ahat, I4shat
   3.00128484941606        3.00129125019670       0.982467340907546     
  0.995633613352379     
 S^hat
  3.073190044271945E-003 -2.282091789607859E-005  5.918327714968728E-006
 -2.282091789607859E-005  3.546256281043874E-003  1.093111409633659E-005
  5.918327714968728E-006  1.093111409633659E-005  2.594857109593596E-003
 S_iso
 -4.978376800065729E-005  5.512496125676709E-005 -1.289212381776288E-005
  5.512496125676709E-005  4.458998266240531E-004 -2.454357564770729E-005
 -1.289212381776288E-005 -2.454357564770729E-005 -3.895999524517852E-004
 S
  1.115128194679843E-003  2.530499923152195E-005 -5.701442999812962E-006
  2.530499923152195E-005  1.595525909895905E-003 -1.097946378323182E-005
 -5.701442999812962E-006 -1.097946378323182E-005  7.283728572740724E-004
 sigma
  1.068808534738426E-003  4.331090425451306E-005 -5.618448044082776E-005
  4.331090425451306E-005  1.533826776103245E-003 -1.516723485301222E-004
 -5.618448044082776E-005 -1.516723485301222E-004  7.664824681068261E-004
 Psi24a
  5.083800506683758E-005
 CChat
  4.589586013364045E-003 -3.409895952880022E-005  8.843150750985913E-006
 -3.409895952880022E-005  6.954313323107351E-003  1.633324386306688E-005
  8.843150750985913E-006  1.633324386306688E-005  5.543532445846899E-003
 -3.409895952880022E-005 -8.297853801119831E-004 -6.571274013403439E-008
 -8.297853801119831E-004 -3.934091390250559E-005 -1.213710180616184E-007
 -6.571274013403439E-008 -1.213710180616184E-007 -2.886128444466571E-005
  8.843150750985913E-006 -6.571274013403439E-008 -8.300217249300095E-004
 -6.571274013403439E-008  1.020258791261879E-005  3.147609851887143E-008
 -8.300217249300095E-004  3.147609851887143E-008  7.484823371097266E-006
 -3.409895952880022E-005 -8.297853801119831E-004 -6.571274013403439E-008
 -8.297853801119831E-004 -3.934091390250559E-005 -1.213710180616184E-007
 -6.571274013403439E-008 -1.213710180616184E-007 -2.886128444466571E-005
  6.954313323107351E-003 -3.934091390250559E-005  1.020258791261879E-005
 -3.934091390250559E-005  6.108112546581672E-003  1.884411575733937E-005
  1.020258791261879E-005  1.884411575733937E-005  6.140776035980421E-003
  1.633324386306688E-005 -1.213710180616184E-007  3.147609851887143E-008
 -1.213710180616184E-007  1.884411575733937E-005 -8.299806305744043E-004
  3.147609851887143E-008 -8.299806305744043E-004  1.382442172870165E-005
  8.843150750985913E-006 -6.571274013403439E-008 -8.300217249300095E-004
 -6.571274013403439E-008  1.020258791261879E-005  3.147609851887143E-008
 -8.300217249300095E-004  3.147609851887143E-008  7.484823371097266E-006
  1.633324386306688E-005 -1.213710180616184E-007  3.147609851887143E-008
 -1.213710180616184E-007  1.884411575733937E-005 -8.299806305744043E-004
  3.147609851887143E-008 -8.299806305744043E-004  1.382442172870165E-005
  5.543532445846899E-003 -2.886128444466571E-005  7.484823371097266E-006
 -2.886128444466571E-005  6.140776035980421E-003  1.382442172870165E-005
  7.484823371097266E-006  1.382442172870165E-005  3.287586794577656E-003
 dShat/dC
 -6.311814751556004E-004  7.779473518384594E-006 -2.017511913472697E-006
  7.779473518384594E-006  2.268133828794913E-004 -3.726331825307669E-006
 -2.017511913472697E-006 -3.726331825307669E-006  2.474072686659140E-004
  5.939752071619695E-005 -4.309339832027516E-004  1.349540346687063E-007
 -4.309339832027516E-004  6.610534443715006E-005  2.492592539263240E-007
  1.349540346687063E-007  2.492592539263240E-007  5.228565059417349E-005
 -1.400107482024544E-005  1.230908969544669E-007 -4.304455260797179E-004
  1.230908969544669E-007 -1.556910097319737E-005 -5.895997018861776E-008
 -4.304455260797179E-004 -5.895997018861776E-008 -1.233557794945850E-005
  5.939752071619695E-005 -4.309339832027516E-004  1.349540346687063E-007
 -4.309339832027516E-004  6.610534443715006E-005  2.492592539263240E-007
  1.349540346687063E-007  2.492592539263240E-007  5.228565059417349E-005
  6.345506671164730E-004  4.727175056983505E-006 -1.225935401926220E-006
  4.727175056983505E-006 -1.676378037061917E-004 -2.264294983074381E-006
 -1.225935401926220E-006 -2.264294983074381E-006  5.915793035301342E-004
 -2.659132433805001E-005  2.335329513675829E-007 -6.056393282387234E-008
  2.335329513675829E-007 -2.957690481151205E-005 -4.305254651548266E-004
 -6.056393282387234E-008 -4.305254651548266E-004 -2.342190301387448E-005
 -1.400107482024544E-005  1.230908969544669E-007 -4.304455260797179E-004
  1.230908969544669E-007 -1.556910097319737E-005 -5.895997018861776E-008
 -4.304455260797179E-004 -5.895997018861776E-008 -1.233557794945850E-005
 -2.659132433805001E-005  2.335329513675829E-007 -6.056393282387234E-008
  2.335329513675829E-007 -2.957690481151205E-005 -4.305254651548266E-004
 -6.056393282387234E-008 -4.305254651548266E-004 -2.342190301387448E-005
 -1.518645603309815E-005  9.469506578501029E-006 -2.455801448733642E-006
  9.469506578501029E-006 -5.887653929798368E-005 -4.535849842542552E-006
 -2.455801448733642E-006 -4.535849842542552E-006 -8.165455232875269E-004
 CCvol
  2.037510470050488E-002 -5.215714731192017E-004  1.257699115704121E-004
 -5.215714731192017E-004  2.236442362145835E-002  2.642507423864107E-004
  1.257699115704121E-004  2.642507423864107E-004  2.175002285950437E-002
 -5.215714731192018E-004 -1.114988257556686E-003 -1.672210465988087E-005
 -1.114988257556686E-003 -5.147274549474371E-004 -1.338369894719357E-005
 -1.672210465988087E-005 -1.338369894719357E-005 -5.569339676282943E-004
  1.257699115704121E-004 -1.672210465988087E-005 -1.097181635368315E-003
 -1.672210465988087E-005  1.387407206840160E-004  2.965384189971935E-005
 -1.097181635368315E-003  2.965384189971935E-005  1.207021182045415E-004
 -5.215714731192018E-004 -1.114988257556686E-003 -1.672210465988087E-005
 -1.114988257556686E-003 -5.147274549474371E-004 -1.338369894719357E-005
 -1.672210465988087E-005 -1.338369894719357E-005 -5.569339676282943E-004
  2.236442362145835E-002 -5.147274549474370E-004  1.387407206840160E-004
 -5.147274549474370E-004  1.984389207077959E-002  2.341324503603689E-004
  1.387407206840160E-004  2.341324503603689E-004  2.146439664704625E-002
  2.642507423864107E-004 -1.338369894719357E-005  2.965384189971935E-005
 -1.338369894719357E-005  2.341324503603689E-004 -1.080676104835719E-003
  2.965384189971935E-005 -1.080676104835719E-003  2.276859556216982E-004
  1.257699115704121E-004 -1.672210465988087E-005 -1.097181635368315E-003
 -1.672210465988087E-005  1.387407206840160E-004  2.965384189971935E-005
 -1.097181635368315E-003  2.965384189971935E-005  1.207021182045415E-004
  2.642507423864107E-004 -1.338369894719357E-005  2.965384189971935E-005
 -1.338369894719357E-005  2.341324503603689E-004 -1.080676104835719E-003
  2.965384189971935E-005 -1.080676104835719E-003  2.276859556216982E-004
  2.175002285950436E-002 -5.569339676282943E-004  1.207021182045415E-004
 -5.569339676282943E-004  2.146439664704625E-002  2.276859556216982E-004
  1.207021182045415E-004  2.276859556216982E-004  1.876619052428835E-002
 CCiso
  2.749015061373850E-003 -1.217859690430300E-004  2.883173461982368E-005
 -1.217859690430300E-004 -1.607256179898757E-003 -1.274262292958994E-005
  2.883173461982368E-005 -1.274262292958994E-005 -9.756568316237931E-004
 -1.217859690430299E-004  1.993268687292716E-003  3.230520775568200E-005
  1.993268687292716E-003 -9.745191674796740E-005  1.558103173415637E-005
  3.230520775568200E-005  1.558103173415637E-005  9.065158661864504E-006
  2.883173461982364E-005  3.230520775568200E-005  1.911793554110184E-003
  3.230520775568200E-005 -1.343316220238954E-005 -6.975301406523443E-005
  1.911793554110184E-003 -6.975301406523443E-005  3.117539499586867E-005
 -1.217859690430299E-004  1.993268687292716E-003  3.230520775568200E-005
  1.993268687292716E-003 -9.745191674796740E-005  1.558103173415637E-005
  3.230520775568200E-005  1.558103173415637E-005  9.065158661864504E-006
 -1.607256179898757E-003 -9.745191674796743E-005 -1.343316220238954E-005
 -9.745191674796743E-005  2.123804272606100E-003  4.376460858762188E-005
 -1.343316220238954E-005  4.376460858762188E-005 -1.357998248857498E-003
 -1.274262292958996E-005  1.558103173415637E-005 -6.975301406523443E-005
  1.558103173415637E-005  4.376460858762186E-005  1.876406852150355E-003
 -6.975301406523443E-005  1.876406852150355E-003  5.913506468822301E-005
  2.883173461982364E-005  3.230520775568200E-005  1.911793554110184E-003
  3.230520775568200E-005 -1.343316220238954E-005 -6.975301406523443E-005
  1.911793554110184E-003 -6.975301406523443E-005  3.117539499586867E-005
 -1.274262292958996E-005  1.558103173415637E-005 -6.975301406523443E-005
  1.558103173415637E-005  4.376460858762186E-005  1.876406852150355E-003
 -6.975301406523443E-005  1.876406852150355E-003  5.913506468822301E-005
 -9.756568316237926E-004  9.065158661864538E-006  3.117539499586867E-005
  9.065158661864538E-006 -1.357998248857503E-003  5.913506468822309E-005
  3.117539499586867E-005  5.913506468822309E-005  2.993937588804141E-003
 CC_ref
  2.312411976187873E-002 -6.433574421622317E-004  1.546016461902357E-004
 -6.433574421622317E-004  2.075716744155959E-002  2.515081194568207E-004
  1.546016461902357E-004  2.515081194568207E-004  2.077436602788058E-002
 -6.433574421622316E-004  8.782804297360293E-004  1.558310309580113E-005
  8.782804297360293E-004 -6.121793716954045E-004  2.197332786962805E-006
  1.558310309580113E-005  2.197332786962805E-006 -5.478688089664298E-004
  1.546016461902357E-004  1.558310309580113E-005  8.146119187418693E-004
  1.558310309580113E-005  1.253075584816264E-004 -4.009917216551508E-005
  8.146119187418693E-004 -4.009917216551508E-005  1.518775132004102E-004
 -6.433574421622316E-004  8.782804297360293E-004  1.558310309580113E-005
  8.782804297360293E-004 -6.121793716954045E-004  2.197332786962805E-006
  1.558310309580113E-005  2.197332786962805E-006 -5.478688089664298E-004
  2.075716744155959E-002 -6.121793716954044E-004  1.253075584816264E-004
 -6.121793716954044E-004  2.196769634338569E-002  2.778970589479908E-004
  1.253075584816264E-004  2.778970589479908E-004  2.010639839818875E-002
  2.515081194568207E-004  2.197332786962805E-006 -4.009917216551508E-005
  2.197332786962805E-006  2.778970589479908E-004  7.957307473146357E-004
 -4.009917216551508E-005  7.957307473146357E-004  2.868210203099212E-004
  1.546016461902357E-004  1.558310309580113E-005  8.146119187418693E-004
  1.558310309580113E-005  1.253075584816264E-004 -4.009917216551508E-005
  8.146119187418693E-004 -4.009917216551508E-005  1.518775132004102E-004
  2.515081194568207E-004  2.197332786962805E-006 -4.009917216551508E-005
  2.197332786962805E-006  2.778970589479908E-004  7.957307473146357E-004
 -4.009917216551508E-005  7.957307473146357E-004  2.868210203099212E-004
  2.077436602788057E-002 -5.478688089664298E-004  1.518775132004102E-004
 -5.478688089664298E-004  2.010639839818874E-002  2.868210203099213E-004
  1.518775132004102E-004  2.868210203099213E-004  2.176012811309249E-002
 DDSDDE
  2.484535904960527E-002  2.065906429133274E-002  2.123381275459626E-002
 -4.179607800096482E-007 -1.421892714571678E-005  9.458715942110767E-005
  2.065906429133273E-002  2.523253072045391E-002  2.084664098885088E-002
  1.070486642672081E-005  1.913207162291875E-005 -7.900879361523366E-005
  2.123381275459628E-002  2.084664098885087E-002  2.465778241029746E-002
 -1.028691565938872E-005 -4.913132900536223E-006 -1.557833465035108E-005
 -4.179607800092620E-007  1.070486642672072E-005 -1.028691565938852E-005
  2.161020893659640E-003 -6.882079839313026E-005 -2.735024998440298E-005
 -1.421892714571630E-005  1.913207162291977E-005 -4.913132900535810E-006
 -6.882079839313025E-005  1.748005694117467E-003  6.023219363334504E-006
  9.458715942110730E-005 -7.900879361523623E-005 -1.557833465035230E-005
 -2.735024998440298E-005  6.023219363334399E-006  1.981698761716608E-003

               CONVERGENCE CHECKS FOR EQUILIBRIUM ITERATION     1


 AVERAGE FORCE                      9.250E-06   TIME AVG. FORCE       9.250E-06
 LARGEST RESIDUAL FORCE             1.535E-03   AT NODE          2   DOF  3
   INSTANCE:                                                                                 
 LARGEST INCREMENT OF DISP.         0.746       AT NODE       2522   DOF  3
   INSTANCE: PART-1-1                                                                        
 LARGEST CORRECTION TO DISP.        0.746       AT NODE       2522   DOF  3
   INSTANCE: PART-1-1                                                                        
          FORCE     EQUILIBRIUM NOT ACHIEVED WITHIN TOLERANCE.

 AVERAGE MOMENT                      0.00       TIME AVG. MOMENT      1.000E-02
 LARGEST RESIDUAL MOMENT            5.415E-17   AT NODE          2   DOF  5
   INSTANCE:                                                                                 
 LARGEST INCREMENT OF ROTATION      1.150E-16   AT NODE          2   DOF  5
   INSTANCE: {assembly node}                                                                 
 LARGEST CORRECTION TO ROTATION     1.150E-16   AT NODE          2   DOF  5
   INSTANCE: {assembly node}                                                                 
          THERE IS ZERO MOMENT    EVERYWHERE

 AVERAGE CAV. VOL.                  1.303E-02   TIME AVG. CAV. VOL.   1.303E-02
 ALL CAV. VOL. RESIDUALS ARE ZERO
 LARGEST INCREMENT OF H.PRESS.      1.000E-05   AT NODE          1   DOF  8
   INSTANCE: {assembly node}                                                                 
 LARGEST CORRECTION TO H.PRESS.     1.000E-05   AT NODE          1   DOF  8
   INSTANCE: {assembly node}                                                                 
          THE CAV. VOL. EQUILIBRIUM RESPONSE WAS LINEAR IN THIS INCREMENT

  NUMBER OF EQUATIONS =     14836     NUMBER OF RHS =    1
  NUMBER OF FLOATING PT. OPERATIONS =  7.56E+08

     CHECK POINT   START OF SOLVER    

     CHECK POINT  END OF SOLVER       

       ELAPSED USER TIME (SEC)      =  0.21000    
       ELAPSED SYSTEM TIME (SEC)    =  4.00000E-02
       ELAPSED TOTAL CPU TIME (SEC) =  0.25000    
       ELAPSED WALLCLOCK TIME (SEC) =          1
 

 ***WARNING: THE SYSTEM MATRIX HAS 68 NEGATIVE EIGENVALUES.

     NEGATIVE EIGENVALUES MEAN THAT THE SYSTEM MATRIX IS NOT 
     POSITIVE DEFINITE:
     FOR EXAMPLE, A BIFURCATION (BUCKLING) LOAD MAY HAVE BEEN EXCEEDED.
 ***************************************************
 deformation gradient
  0.987781803154451      -2.340060917723457E-002 -9.239828533032100E-002
 -4.070723393143317E-002  0.966982557624186      -0.106871081127998     
  0.121567987037647       0.196104279468256        1.02693285754169     
 J
   1.01252017661351     
 C
  0.984797922284909      -5.296314119876278E-002  2.060685065386519E-002
 -5.296314119876278E-002  0.948133773625228       7.493129650300227E-002
  2.060685065386519E-002  7.493129650300227E-002   1.10782675779689     
 Chat
  0.976662844600794      -5.252563086461524E-002  2.043662453224098E-002
 -5.252563086461524E-002  0.940301565891201       7.431231477667101E-002
  2.043662453224098E-002  7.431231477667101E-002   1.09867538112227     
 I1hat, I2hat, I4ahat, I4shat
   3.01563979161426        3.01578028877353       0.976662844600794     
  0.940301565891201     
 S^hat
  3.068405986043499E-003  4.654700384066893E-005 -1.811046578468350E-005
  4.654700384066893E-005  3.581885917513822E-003 -6.585386114132190E-005
 -1.811046578468350E-005 -6.585386114132190E-005  2.521548805494670E-003
 S_iso
 -5.486177705557030E-005 -1.323972214405206E-004  5.174146341129761E-005
 -1.323972214405206E-004  3.185470274579840E-004  1.567362660558081E-004
  5.174146341129761E-005  1.567362660558081E-004 -2.596465619418963E-004
 S
  2.035132301776746E-004 -1.175048557905672E-004  4.592810007847646E-005
 -1.175048557905672E-004  5.882505796053223E-004  1.382170152394653E-004
  4.592810007847646E-005  1.382170152394653E-004 -2.942455881021369E-005
 sigma
  2.155240576668381E-004 -1.155524814001714E-004  3.039235592880533E-005
 -1.155524814001714E-004  5.988453131885607E-004  7.540438340302780E-005
  3.039235592880532E-005  7.540438340302786E-005 -6.315904247490040E-005
 Psi24a
  4.987422669524913E-005
 CChat
  4.819698622019269E-003  7.315249750991130E-005 -2.846210698656978E-005
  7.315249750991130E-005  7.367529487885594E-003 -1.034948335159990E-004
 -2.846210698656978E-005 -1.034948335159990E-004  5.712487818459328E-003
  7.315249750991130E-005 -8.704861365411171E-004 -4.320670810197910E-007
 -8.704861365411171E-004  8.537951090306943E-005 -1.571096287389654E-006
 -4.320670810197910E-007 -1.571096287389654E-006  6.026333876630439E-005
 -2.846210698656978E-005 -4.320670810197910E-007 -8.714285147929599E-004
 -4.320670810197910E-007 -3.321938220161130E-005  6.112807100239922E-007
 -8.714285147929599E-004  6.112807100239922E-007 -2.344720486271930E-005
  7.315249750991130E-005 -8.704861365411171E-004 -4.320670810197910E-007
 -8.704861365411171E-004  8.537951090306943E-005 -1.571096287389654E-006
 -4.320670810197910E-007 -1.571096287389654E-006  6.026333876630439E-005
  7.367529487885594E-003  8.537951090306943E-005 -3.321938220161130E-005
  8.537951090306943E-005  6.564412717336347E-003 -1.207933914408509E-004
 -3.321938220161130E-005 -1.207933914408509E-004  6.376197754176943E-003
 -1.034948335159990E-004 -1.571096287389654E-006  6.112807100239922E-007
 -1.571096287389654E-006 -1.207933914408509E-004 -8.693738643800296E-004
  6.112807100239922E-007 -8.693738643800296E-004 -8.525948429705884E-005
 -2.846210698656978E-005 -4.320670810197910E-007 -8.714285147929599E-004
 -4.320670810197910E-007 -3.321938220161130E-005  6.112807100239922E-007
 -8.714285147929599E-004  6.112807100239922E-007 -2.344720486271930E-005
 -1.034948335159990E-004 -1.571096287389654E-006  6.112807100239922E-007
 -1.571096287389654E-006 -1.207933914408509E-004 -8.693738643800296E-004
  6.112807100239922E-007 -8.693738643800296E-004 -8.525948429705884E-005
  5.712487818459328E-003  6.026333876630439E-005 -2.344720486271930E-005
  6.026333876630439E-005  6.376197754176943E-003 -8.525948429705884E-005
 -2.344720486271930E-005 -8.525948429705884E-005  3.270575289414952E-003
 dShat/dC
 -6.589089281071568E-004 -1.650224561899905E-005  6.420678668735345E-006
 -1.650224561899905E-005  2.010917770060786E-004  2.334707933583579E-005
  6.420678668735345E-006  2.334707933583579E-005  2.641589171617398E-004
 -1.411548885508383E-004 -4.419453382472984E-004  9.793356080903650E-007
 -4.419453382472984E-004 -1.594595168872996E-004  3.561091797013771E-006
  9.793356080903650E-007  3.561091797013771E-006 -1.203926973485784E-004
  5.514821816818422E-005  9.832726440290565E-007 -4.398108485568100E-004
  9.832726440290565E-007  6.230147525970855E-005 -1.391116394636226E-006
 -4.398108485568100E-004 -1.391116394636226E-006  4.703520307560759E-005
 -1.411548885508383E-004 -4.419453382472984E-004  9.793356080903650E-007
 -4.419453382472984E-004 -1.594595168872996E-004  3.561091797013771E-006
  9.793356080903650E-007  3.561091797013771E-006 -1.203926973485784E-004
  4.901866338520261E-004 -1.267842027486413E-005  4.932908192710535E-006
 -1.267842027486413E-005 -3.578557618461651E-004  1.793720023592015E-005
  4.932908192710535E-006  1.793720023592015E-005  4.840840381812726E-004
  1.692161723638935E-004  3.034192193094445E-006 -1.180540730081952E-006
  3.034192193094445E-006  1.909230984481045E-004 -4.437209980995481E-004
 -1.180540730081952E-006 -4.437209980995481E-004  1.445103346059150E-004
  5.514821816818422E-005  9.832726440290565E-007 -4.398108485568100E-004
  9.832726440290565E-007  6.230147525970855E-005 -1.391116394636226E-006
 -4.398108485568100E-004 -1.391116394636226E-006  4.703520307560759E-005
  1.692161723638935E-004  3.034192193094445E-006 -1.180540730081952E-006
  3.034192193094445E-006  1.909230984481045E-004 -4.437209980995481E-004
 -1.180540730081952E-006 -4.437209980995481E-004  1.445103346059150E-004
  1.277684613624026E-004 -1.718378059593780E-005  6.685849675727854E-006
 -1.718378059593780E-005  8.411893105724237E-005  2.431130272361622E-005
  6.685849675727854E-006  2.431130272361622E-005 -6.819367215657472E-004
 CCvol
  2.103034567799229E-002  1.212159027822871E-003 -4.731767276957556E-004
  1.212159027822871E-003  2.250037580378511E-002 -1.544430208781040E-003
 -4.731767276957556E-004 -1.544430208781040E-003  1.920780212382660E-002
  1.212159027822871E-003 -2.041064246223432E-004 -8.742180097541415E-006
 -2.041064246223432E-004  1.265306575400176E-003 -8.178631805121395E-005
 -8.742180097541415E-006 -8.178631805121395E-005  1.106276339091761E-003
 -4.731767276957555E-004 -8.742180097541418E-006 -2.238339708249077E-004
 -8.742180097541418E-006 -5.041157763002321E-004  2.081718255421289E-005
 -2.238339708249077E-004  2.081718255421289E-005 -4.216185429540065E-004
  1.212159027822871E-003 -2.041064246223432E-004 -8.742180097541415E-006
 -2.041064246223432E-004  1.265306575400176E-003 -8.178631805121395E-005
 -8.742180097541415E-006 -8.178631805121395E-005  1.106276339091761E-003
  2.250037580378511E-002  1.265306575400176E-003 -5.041157763002321E-004
  1.265306575400176E-003  2.291494084701582E-002 -1.573459205890298E-003
 -5.041157763002321E-004 -1.573459205890298E-003  2.004754797026510E-002
 -1.544430208781040E-003 -8.178631805121395E-005  2.081718255421289E-005
 -8.178631805121395E-005 -1.573459205890298E-003 -1.355057136481487E-004
  2.081718255421289E-005 -1.355057136481487E-004 -1.343122577889362E-003
 -4.731767276957555E-004 -8.742180097541418E-006 -2.238339708249077E-004
 -8.742180097541418E-006 -5.041157763002321E-004  2.081718255421289E-005
 -2.238339708249077E-004  2.081718255421289E-005 -4.216185429540065E-004
 -1.544430208781040E-003 -8.178631805121395E-005  2.081718255421289E-005
 -8.178631805121395E-005 -1.573459205890298E-003 -1.355057136481487E-004
  2.081718255421289E-005 -1.355057136481487E-004 -1.343122577889362E-003
  1.920780212382660E-002  1.106276339091761E-003 -4.216185429540065E-004
  1.106276339091761E-003  2.004754797026510E-002 -1.343122577889362E-003
 -4.216185429540065E-004 -1.343122577889362E-003  1.669702372950222E-002
 CCiso
  3.073871871964326E-003  3.075715997825717E-004 -1.201452361906973E-004
  3.075715997825717E-004 -1.836384724462296E-003  7.171732767708873E-005
 -1.201452361906973E-004  7.171732767708873E-005 -1.037614299807650E-003
  3.075715997825717E-004  2.438739775050793E-003 -2.348646469662670E-004
  2.438739775050793E-003  2.823096716227060E-004 -1.019782151672899E-004
 -2.348646469662670E-004 -1.019782151672899E-004 -2.029174168405858E-005
 -1.201452361906973E-004 -2.348646469662670E-004  1.937690991683498E-003
 -2.348646469662670E-004  1.161363244923757E-005  1.726670371676939E-004
  1.937690991683498E-003  1.726670371676939E-004 -1.144488725319849E-004
  3.075715997825717E-004  2.438739775050793E-003 -2.348646469662670E-004
  2.438739775050793E-003  2.823096716227060E-004 -1.019782151672899E-004
 -2.348646469662670E-004 -1.019782151672899E-004 -2.029174168405858E-005
 -1.836384724462297E-003  2.823096716227056E-004  1.161363244923756E-005
  2.823096716227056E-004  2.931993441899572E-003 -3.411510778180463E-004
  1.161363244923756E-005 -3.411510778180463E-004 -1.379274412605073E-003
  7.171732767708905E-005 -1.019782151672899E-004  1.726670371676939E-004
 -1.019782151672899E-004 -3.411510778180458E-004  2.090558887557535E-003
  1.726670371676939E-004  2.090558887557535E-003 -3.537175627213083E-004
 -1.201452361906973E-004 -2.348646469662670E-004  1.937690991683498E-003
 -2.348646469662670E-004  1.161363244923757E-005  1.726670371676939E-004
  1.937690991683498E-003  1.726670371676939E-004 -1.144488725319849E-004
  7.171732767708905E-005 -1.019782151672899E-004  1.726670371676939E-004
 -1.019782151672899E-004 -3.411510778180458E-004  2.090558887557535E-003
  1.726670371676939E-004  2.090558887557535E-003 -3.537175627213083E-004
 -1.037614299807651E-003 -2.029174168405863E-005 -1.144488725319851E-004
 -2.029174168405863E-005 -1.379274412605069E-003 -3.537175627213079E-004
 -1.144488725319851E-004 -3.537175627213079E-004  2.621751709653625E-003
 CC_ref
  2.410421754995661E-002  1.519730627605443E-003 -5.933219638864528E-004
  1.519730627605443E-003  2.066399107932281E-002 -1.472712881103951E-003
 -5.933219638864528E-004 -1.472712881103951E-003  1.817018782401895E-002
  1.519730627605443E-003  2.234633350428450E-003 -2.436068270638084E-004
  2.234633350428450E-003  1.547616247022882E-003 -1.837645332185039E-004
 -2.436068270638084E-004 -1.837645332185039E-004  1.085984597407703E-003
 -5.933219638864528E-004 -2.436068270638084E-004  1.713857020858590E-003
 -2.436068270638084E-004 -4.925021438509945E-004  1.934842197219068E-004
  1.713857020858590E-003  1.934842197219068E-004 -5.360674154859914E-004
  1.519730627605443E-003  2.234633350428450E-003 -2.436068270638084E-004
  2.234633350428450E-003  1.547616247022882E-003 -1.837645332185039E-004
 -2.436068270638084E-004 -1.837645332185039E-004  1.085984597407703E-003
  2.066399107932281E-002  1.547616247022882E-003 -4.925021438509945E-004
  1.547616247022882E-003  2.584693428891539E-002 -1.914610283708345E-003
 -4.925021438509945E-004 -1.914610283708345E-003  1.866827355766003E-002
 -1.472712881103951E-003 -1.837645332185039E-004  1.934842197219068E-004
 -1.837645332185039E-004 -1.914610283708344E-003  1.955053173909387E-003
  1.934842197219068E-004  1.955053173909387E-003 -1.696840140610670E-003
 -5.933219638864528E-004 -2.436068270638084E-004  1.713857020858590E-003
 -2.436068270638084E-004 -4.925021438509945E-004  1.934842197219068E-004
  1.713857020858590E-003  1.934842197219068E-004 -5.360674154859914E-004
 -1.472712881103951E-003 -1.837645332185039E-004  1.934842197219068E-004
 -1.837645332185039E-004 -1.914610283708344E-003  1.955053173909387E-003
  1.934842197219068E-004  1.955053173909387E-003 -1.696840140610670E-003
  1.817018782401895E-002  1.085984597407703E-003 -5.360674154859916E-004
  1.085984597407703E-003  1.866827355766004E-002 -1.696840140610670E-003
 -5.360674154859916E-004 -1.696840140610670E-003  1.931877543915585E-002
 DDSDDE
  2.331511774797394E-002  1.880958279304798E-002  1.937772066109282E-002
 -1.029853740519149E-005 -1.399623201735505E-005  6.396037067710623E-005
  1.880958279304797E-002  2.366484027880697E-002  1.902799805467616E-002
 -3.354889412828892E-005  3.225150978975799E-005 -1.882070741991200E-005
  1.937772066109280E-002  1.902799805467616E-002  2.309670253784665E-002
  4.384745707364998E-005 -1.825528608194516E-005 -4.513968377356879E-005
 -1.029853740519138E-005 -3.354889412828833E-005  4.384745707364988E-005
  2.327707203123356E-003 -5.102680763760494E-005 -2.458681711148429E-005
 -1.399623201735645E-005  3.225150978975861E-005 -1.825528608194387E-005
 -5.102680763760494E-005  1.904351747545457E-003 -1.748893560080139E-005
  6.396037067710703E-005 -1.882070741991060E-005 -4.513968377357227E-005
 -2.458681711148427E-005 -1.748893560080145E-005  2.122735960110316E-003
   ELEMENT PART-1-1.495 IS DISTORTING EXCESSIVELY.
   ELEMENT PART-1-1.495 IS DISTORTING EXCESSIVELY.
   ELEMENT PART-1-1.506 IS DISTORTING EXCESSIVELY.
   ELEMENT PART-1-1.506 IS DISTORTING EXCESSIVELY.
   ELEMENT PART-1-1.533 IS DISTORTING EXCESSIVELY.
   ELEMENT PART-1-1.534 IS DISTORTING EXCESSIVELY.
   ELEMENT PART-1-1.534 IS DISTORTING EXCESSIVELY.
   ELEMENT PART-1-1.534 IS DISTORTING EXCESSIVELY.
   ELEMENT PART-1-1.534 IS DISTORTING EXCESSIVELY.
   ELEMENT PART-1-1.534 IS DISTORTING EXCESSIVELY.
   ELEMENT PART-1-1.534 IS DISTORTING EXCESSIVELY.
   ELEMENT PART-1-1.535 IS DISTORTING EXCESSIVELY.
   ELEMENT PART-1-1.535 IS DISTORTING EXCESSIVELY.
   ELEMENT PART-1-1.535 IS DISTORTING EXCESSIVELY.
   ELEMENT PART-1-1.535 IS DISTORTING EXCESSIVELY.
   ELEMENT PART-1-1.535 IS DISTORTING EXCESSIVELY.
   ELEMENT PART-1-1.535 IS DISTORTING EXCESSIVELY.
   ELEMENT PART-1-1.535 IS DISTORTING EXCESSIVELY.
   ELEMENT PART-1-1.535 IS DISTORTING EXCESSIVELY.
   ELEMENT PART-1-1.536 IS DISTORTING EXCESSIVELY.
   ELEMENT PART-1-1.536 IS DISTORTING EXCESSIVELY.
   ELEMENT PART-1-1.536 IS DISTORTING EXCESSIVELY.
   ELEMENT PART-1-1.536 IS DISTORTING EXCESSIVELY.
   ELEMENT PART-1-1.536 IS DISTORTING EXCESSIVELY.
   ELEMENT PART-1-1.536 IS DISTORTING EXCESSIVELY.
   ELEMENT PART-1-1.536 IS DISTORTING EXCESSIVELY.
   ELEMENT PART-1-1.536 IS DISTORTING EXCESSIVELY.
   ELEMENT PART-1-1.537 IS DISTORTING EXCESSIVELY.
   ELEMENT PART-1-1.537 IS DISTORTING EXCESSIVELY.
   ELEMENT PART-1-1.537 IS DISTORTING EXCESSIVELY.
   ELEMENT PART-1-1.537 IS DISTORTING EXCESSIVELY.
   ELEMENT PART-1-1.537 IS DISTORTING EXCESSIVELY.
   ELEMENT PART-1-1.537 IS DISTORTING EXCESSIVELY.
   ELEMENT PART-1-1.544 IS DISTORTING EXCESSIVELY.
   ELEMENT PART-1-1.544 IS DISTORTING EXCESSIVELY.
   ELEMENT PART-1-1.544 IS DISTORTING EXCESSIVELY.
   ELEMENT PART-1-1.544 IS DISTORTING EXCESSIVELY.
   ELEMENT PART-1-1.544 IS DISTORTING EXCESSIVELY.
   ELEMENT PART-1-1.544 IS DISTORTING EXCESSIVELY.
   ELEMENT PART-1-1.545 IS DISTORTING EXCESSIVELY.
   ELEMENT PART-1-1.545 IS DISTORTING EXCESSIVELY.
   ELEMENT PART-1-1.545 IS DISTORTING EXCESSIVELY.
   ELEMENT PART-1-1.545 IS DISTORTING EXCESSIVELY.
   ELEMENT PART-1-1.545 IS DISTORTING EXCESSIVELY.
   ELEMENT PART-1-1.545 IS DISTORTING EXCESSIVELY.
   ELEMENT PART-1-1.545 IS DISTORTING EXCESSIVELY.
   ELEMENT PART-1-1.545 IS DISTORTING EXCESSIVELY.
   ELEMENT PART-1-1.546 IS DISTORTING EXCESSIVELY.
   ELEMENT PART-1-1.546 IS DISTORTING EXCESSIVELY.
   ELEMENT PART-1-1.546 IS DISTORTING EXCESSIVELY.
   ELEMENT PART-1-1.546 IS DISTORTING EXCESSIVELY.
   ELEMENT PART-1-1.546 IS DISTORTING EXCESSIVELY.
   ELEMENT PART-1-1.546 IS DISTORTING EXCESSIVELY.
   ELEMENT PART-1-1.546 IS DISTORTING EXCESSIVELY.
   ELEMENT PART-1-1.546 IS DISTORTING EXCESSIVELY.
   ELEMENT PART-1-1.547 IS DISTORTING EXCESSIVELY.
   ELEMENT PART-1-1.547 IS DISTORTING EXCESSIVELY.
   ELEMENT PART-1-1.547 IS DISTORTING EXCESSIVELY.
   ELEMENT PART-1-1.547 IS DISTORTING EXCESSIVELY.
   ELEMENT PART-1-1.547 IS DISTORTING EXCESSIVELY.
   ELEMENT PART-1-1.547 IS DISTORTING EXCESSIVELY.
   ELEMENT PART-1-1.548 IS DISTORTING EXCESSIVELY.
   ELEMENT PART-1-1.572 IS DISTORTING EXCESSIVELY.
   ELEMENT PART-1-1.572 IS DISTORTING EXCESSIVELY.
   ELEMENT PART-1-1.573 IS DISTORTING EXCESSIVELY.
   ELEMENT PART-1-1.573 IS DISTORTING EXCESSIVELY.
   ELEMENT PART-1-1.573 IS DISTORTING EXCESSIVELY.
   ELEMENT PART-1-1.573 IS DISTORTING EXCESSIVELY.
   ELEMENT PART-1-1.573 IS DISTORTING EXCESSIVELY.
   ELEMENT PART-1-1.573 IS DISTORTING EXCESSIVELY.
   ELEMENT PART-1-1.574 IS DISTORTING EXCESSIVELY.
   ELEMENT PART-1-1.574 IS DISTORTING EXCESSIVELY.
   ELEMENT PART-1-1.574 IS DISTORTING EXCESSIVELY.
   ELEMENT PART-1-1.575 IS DISTORTING EXCESSIVELY.
   ELEMENT PART-1-1.575 IS DISTORTING EXCESSIVELY.
   ELEMENT PART-1-1.575 IS DISTORTING EXCESSIVELY.
   ELEMENT PART-1-1.575 IS DISTORTING EXCESSIVELY.
   ELEMENT PART-1-1.575 IS DISTORTING EXCESSIVELY.
   ELEMENT PART-1-1.575 IS DISTORTING EXCESSIVELY.
   ELEMENT PART-1-1.575 IS DISTORTING EXCESSIVELY.
   ELEMENT PART-1-1.576 IS DISTORTING EXCESSIVELY.
   ELEMENT PART-1-1.576 IS DISTORTING EXCESSIVELY.
   ELEMENT PART-1-1.576 IS DISTORTING EXCESSIVELY.
   ELEMENT PART-1-1.576 IS DISTORTING EXCESSIVELY.
   ELEMENT PART-1-1.576 IS DISTORTING EXCESSIVELY.
   ELEMENT PART-1-1.576 IS DISTORTING EXCESSIVELY.
   ELEMENT PART-1-1.576 IS DISTORTING EXCESSIVELY.
   ELEMENT PART-1-1.576 IS DISTORTING EXCESSIVELY.
   ELEMENT PART-1-1.577 IS DISTORTING EXCESSIVELY.
   ELEMENT PART-1-1.577 IS DISTORTING EXCESSIVELY.
   ELEMENT PART-1-1.577 IS DISTORTING EXCESSIVELY.
   ELEMENT PART-1-1.577 IS DISTORTING EXCESSIVELY.
   ELEMENT PART-1-1.577 IS DISTORTING EXCESSIVELY.
   ELEMENT PART-1-1.577 IS DISTORTING EXCESSIVELY.
   ELEMENT PART-1-1.577 IS DISTORTING EXCESSIVELY.
   ELEMENT PART-1-1.577 IS DISTORTING EXCESSIVELY.
   ELEMENT PART-1-1.578 IS DISTORTING EXCESSIVELY.
   ELEMENT PART-1-1.578 IS DISTORTING EXCESSIVELY.
   ELEMENT PART-1-1.578 IS DISTORTING EXCESSIVELY.
   ELEMENT PART-1-1.578 IS DISTORTING EXCESSIVELY.
   ELEMENT PART-1-1.583 IS DISTORTING EXCESSIVELY.
   ELEMENT PART-1-1.583 IS DISTORTING EXCESSIVELY.
   ELEMENT PART-1-1.583 IS DISTORTING EXCESSIVELY.
   ELEMENT PART-1-1.583 IS DISTORTING EXCESSIVELY.
   ELEMENT PART-1-1.584 IS DISTORTING EXCESSIVELY.
   ELEMENT PART-1-1.584 IS DISTORTING EXCESSIVELY.
   ELEMENT PART-1-1.584 IS DISTORTING EXCESSIVELY.
   ELEMENT PART-1-1.584 IS DISTORTING EXCESSIVELY.
   ELEMENT PART-1-1.584 IS DISTORTING EXCESSIVELY.
   ELEMENT PART-1-1.584 IS DISTORTING EXCESSIVELY.
   ELEMENT PART-1-1.584 IS DISTORTING EXCESSIVELY.
   ELEMENT PART-1-1.584 IS DISTORTING EXCESSIVELY.
   ELEMENT PART-1-1.585 IS DISTORTING EXCESSIVELY.
   ELEMENT PART-1-1.585 IS DISTORTING EXCESSIVELY.
   ELEMENT PART-1-1.585 IS DISTORTING EXCESSIVELY.
   ELEMENT PART-1-1.585 IS DISTORTING EXCESSIVELY.
   ELEMENT PART-1-1.585 IS DISTORTING EXCESSIVELY.
   ELEMENT PART-1-1.585 IS DISTORTING EXCESSIVELY.
   ELEMENT PART-1-1.585 IS DISTORTING EXCESSIVELY.
   ELEMENT PART-1-1.585 IS DISTORTING EXCESSIVELY.
   ELEMENT PART-1-1.586 IS DISTORTING EXCESSIVELY.
   ELEMENT PART-1-1.586 IS DISTORTING EXCESSIVELY.
   ELEMENT PART-1-1.586 IS DISTORTING EXCESSIVELY.
   ELEMENT PART-1-1.586 IS DISTORTING EXCESSIVELY.
   ELEMENT PART-1-1.586 IS DISTORTING EXCESSIVELY.
   ELEMENT PART-1-1.586 IS DISTORTING EXCESSIVELY.
   ELEMENT PART-1-1.586 IS DISTORTING EXCESSIVELY.
   ELEMENT PART-1-1.587 IS DISTORTING EXCESSIVELY.
   ELEMENT PART-1-1.587 IS DISTORTING EXCESSIVELY.
   ELEMENT PART-1-1.587 IS DISTORTING EXCESSIVELY.
   ELEMENT PART-1-1.588 IS DISTORTING EXCESSIVELY.
   ELEMENT PART-1-1.588 IS DISTORTING EXCESSIVELY.
   ELEMENT PART-1-1.588 IS DISTORTING EXCESSIVELY.
   ELEMENT PART-1-1.588 IS DISTORTING EXCESSIVELY.
   ELEMENT PART-1-1.588 IS DISTORTING EXCESSIVELY.
   ELEMENT PART-1-1.588 IS DISTORTING EXCESSIVELY.
   ELEMENT PART-1-1.589 IS DISTORTING EXCESSIVELY.
   ELEMENT PART-1-1.589 IS DISTORTING EXCESSIVELY.
   ELEMENT PART-1-1.612 IS DISTORTING EXCESSIVELY.
   ELEMENT PART-1-1.612 IS DISTORTING EXCESSIVELY.
   ELEMENT PART-1-1.612 IS DISTORTING EXCESSIVELY.
   ELEMENT PART-1-1.613 IS DISTORTING EXCESSIVELY.
   ELEMENT PART-1-1.613 IS DISTORTING EXCESSIVELY.
   ELEMENT PART-1-1.613 IS DISTORTING EXCESSIVELY.
   ELEMENT PART-1-1.613 IS DISTORTING EXCESSIVELY.
   ELEMENT PART-1-1.613 IS DISTORTING EXCESSIVELY.
   ELEMENT PART-1-1.613 IS DISTORTING EXCESSIVELY.
   ELEMENT PART-1-1.613 IS DISTORTING EXCESSIVELY.
   ELEMENT PART-1-1.613 IS DISTORTING EXCESSIVELY.
   ELEMENT PART-1-1.614 IS DISTORTING EXCESSIVELY.
   ELEMENT PART-1-1.614 IS DISTORTING EXCESSIVELY.
   ELEMENT PART-1-1.614 IS DISTORTING EXCESSIVELY.
   ELEMENT PART-1-1.615 IS DISTORTING EXCESSIVELY.
   ELEMENT PART-1-1.615 IS DISTORTING EXCESSIVELY.
   ELEMENT PART-1-1.615 IS DISTORTING EXCESSIVELY.
   ELEMENT PART-1-1.615 IS DISTORTING EXCESSIVELY.
   ELEMENT PART-1-1.615 IS DISTORTING EXCESSIVELY.
   ELEMENT PART-1-1.615 IS DISTORTING EXCESSIVELY.
   ELEMENT PART-1-1.616 IS DISTORTING EXCESSIVELY.
   ELEMENT PART-1-1.616 IS DISTORTING EXCESSIVELY.
   ELEMENT PART-1-1.616 IS DISTORTING EXCESSIVELY.
   ELEMENT PART-1-1.616 IS DISTORTING EXCESSIVELY.
   ELEMENT PART-1-1.616 IS DISTORTING EXCESSIVELY.
   ELEMENT PART-1-1.616 IS DISTORTING EXCESSIVELY.
   ELEMENT PART-1-1.616 IS DISTORTING EXCESSIVELY.
   ELEMENT PART-1-1.616 IS DISTORTING EXCESSIVELY.
   ELEMENT PART-1-1.617 IS DISTORTING EXCESSIVELY.
   ELEMENT PART-1-1.617 IS DISTORTING EXCESSIVELY.
   ELEMENT PART-1-1.617 IS DISTORTING EXCESSIVELY.
   ELEMENT PART-1-1.617 IS DISTORTING EXCESSIVELY.
   ELEMENT PART-1-1.617 IS DISTORTING EXCESSIVELY.
   ELEMENT PART-1-1.617 IS DISTORTING EXCESSIVELY.
   ELEMENT PART-1-1.617 IS DISTORTING EXCESSIVELY.
   ELEMENT PART-1-1.617 IS DISTORTING EXCESSIVELY.
   ELEMENT PART-1-1.618 IS DISTORTING EXCESSIVELY.
   ELEMENT PART-1-1.618 IS DISTORTING EXCESSIVELY.
   ELEMENT PART-1-1.618 IS DISTORTING EXCESSIVELY.
   ELEMENT PART-1-1.618 IS DISTORTING EXCESSIVELY.
   ELEMENT PART-1-1.618 IS DISTORTING EXCESSIVELY.
   ELEMENT PART-1-1.618 IS DISTORTING EXCESSIVELY.
   ELEMENT PART-1-1.623 IS DISTORTING EXCESSIVELY.
   ELEMENT PART-1-1.623 IS DISTORTING EXCESSIVELY.
   ELEMENT PART-1-1.623 IS DISTORTING EXCESSIVELY.
   ELEMENT PART-1-1.623 IS DISTORTING EXCESSIVELY.
   ELEMENT PART-1-1.623 IS DISTORTING EXCESSIVELY.
   ELEMENT PART-1-1.623 IS DISTORTING EXCESSIVELY.
   ELEMENT PART-1-1.624 IS DISTORTING EXCESSIVELY.
   ELEMENT PART-1-1.624 IS DISTORTING EXCESSIVELY.
   ELEMENT PART-1-1.624 IS DISTORTING EXCESSIVELY.
   ELEMENT PART-1-1.624 IS DISTORTING EXCESSIVELY.
   ELEMENT PART-1-1.624 IS DISTORTING EXCESSIVELY.
   ELEMENT PART-1-1.624 IS DISTORTING EXCESSIVELY.
   ELEMENT PART-1-1.624 IS DISTORTING EXCESSIVELY.
   ELEMENT PART-1-1.624 IS DISTORTING EXCESSIVELY.
   ELEMENT PART-1-1.625 IS DISTORTING EXCESSIVELY.
   ELEMENT PART-1-1.625 IS DISTORTING EXCESSIVELY.
   ELEMENT PART-1-1.625 IS DISTORTING EXCESSIVELY.
   ELEMENT PART-1-1.625 IS DISTORTING EXCESSIVELY.
   ELEMENT PART-1-1.625 IS DISTORTING EXCESSIVELY.
   ELEMENT PART-1-1.625 IS DISTORTING EXCESSIVELY.
   ELEMENT PART-1-1.625 IS DISTORTING EXCESSIVELY.
   ELEMENT PART-1-1.625 IS DISTORTING EXCESSIVELY.
   ELEMENT PART-1-1.626 IS DISTORTING EXCESSIVELY.
   ELEMENT PART-1-1.626 IS DISTORTING EXCESSIVELY.
   ELEMENT PART-1-1.626 IS DISTORTING EXCESSIVELY.
   ELEMENT PART-1-1.626 IS DISTORTING EXCESSIVELY.
   ELEMENT PART-1-1.626 IS DISTORTING EXCESSIVELY.
   ELEMENT PART-1-1.626 IS DISTORTING EXCESSIVELY.
   ELEMENT PART-1-1.627 IS DISTORTING EXCESSIVELY.
   ELEMENT PART-1-1.627 IS DISTORTING EXCESSIVELY.
   ELEMENT PART-1-1.627 IS DISTORTING EXCESSIVELY.
   ELEMENT PART-1-1.628 IS DISTORTING EXCESSIVELY.
   ELEMENT PART-1-1.628 IS DISTORTING EXCESSIVELY.
   ELEMENT PART-1-1.628 IS DISTORTING EXCESSIVELY.
   ELEMENT PART-1-1.628 IS DISTORTING EXCESSIVELY.
   ELEMENT PART-1-1.628 IS DISTORTING EXCESSIVELY.
   ELEMENT PART-1-1.628 IS DISTORTING EXCESSIVELY.
   ELEMENT PART-1-1.628 IS DISTORTING EXCESSIVELY.
   ELEMENT PART-1-1.628 IS DISTORTING EXCESSIVELY.
   ELEMENT PART-1-1.629 IS DISTORTING EXCESSIVELY.
   ELEMENT PART-1-1.629 IS DISTORTING EXCESSIVELY.
   ELEMENT PART-1-1.629 IS DISTORTING EXCESSIVELY.
   ELEMENT PART-1-1.653 IS DISTORTING EXCESSIVELY.
   ELEMENT PART-1-1.653 IS DISTORTING EXCESSIVELY.
   ELEMENT PART-1-1.653 IS DISTORTING EXCESSIVELY.
   ELEMENT PART-1-1.653 IS DISTORTING EXCESSIVELY.
   ELEMENT PART-1-1.653 IS DISTORTING EXCESSIVELY.
   ELEMENT PART-1-1.654 IS DISTORTING EXCESSIVELY.
   ELEMENT PART-1-1.654 IS DISTORTING EXCESSIVELY.
   ELEMENT PART-1-1.654 IS DISTORTING EXCESSIVELY.
   ELEMENT PART-1-1.654 IS DISTORTING EXCESSIVELY.
   ELEMENT PART-1-1.654 IS DISTORTING EXCESSIVELY.
   ELEMENT PART-1-1.655 IS DISTORTING EXCESSIVELY.
   ELEMENT PART-1-1.655 IS DISTORTING EXCESSIVELY.
   ELEMENT PART-1-1.655 IS DISTORTING EXCESSIVELY.
   ELEMENT PART-1-1.655 IS DISTORTING EXCESSIVELY.
   ELEMENT PART-1-1.655 IS DISTORTING EXCESSIVELY.
   ELEMENT PART-1-1.655 IS DISTORTING EXCESSIVELY.
   ELEMENT PART-1-1.656 IS DISTORTING EXCESSIVELY.
   ELEMENT PART-1-1.656 IS DISTORTING EXCESSIVELY.
   ELEMENT PART-1-1.656 IS DISTORTING EXCESSIVELY.
   ELEMENT PART-1-1.656 IS DISTORTING EXCESSIVELY.
   ELEMENT PART-1-1.656 IS DISTORTING EXCESSIVELY.
   ELEMENT PART-1-1.656 IS DISTORTING EXCESSIVELY.
   ELEMENT PART-1-1.656 IS DISTORTING EXCESSIVELY.
   ELEMENT PART-1-1.656 IS DISTORTING EXCESSIVELY.
   ELEMENT PART-1-1.657 IS DISTORTING EXCESSIVELY.
   ELEMENT PART-1-1.657 IS DISTORTING EXCESSIVELY.
   ELEMENT PART-1-1.657 IS DISTORTING EXCESSIVELY.
   ELEMENT PART-1-1.657 IS DISTORTING EXCESSIVELY.
   ELEMENT PART-1-1.657 IS DISTORTING EXCESSIVELY.
   ELEMENT PART-1-1.657 IS DISTORTING EXCESSIVELY.
   ELEMENT PART-1-1.657 IS DISTORTING EXCESSIVELY.
   ELEMENT PART-1-1.657 IS DISTORTING EXCESSIVELY.
   ELEMENT PART-1-1.658 IS DISTORTING EXCESSIVELY.
   ELEMENT PART-1-1.658 IS DISTORTING EXCESSIVELY.
   ELEMENT PART-1-1.658 IS DISTORTING EXCESSIVELY.
   ELEMENT PART-1-1.663 IS DISTORTING EXCESSIVELY.
   ELEMENT PART-1-1.663 IS DISTORTING EXCESSIVELY.
   ELEMENT PART-1-1.663 IS DISTORTING EXCESSIVELY.
   ELEMENT PART-1-1.664 IS DISTORTING EXCESSIVELY.
   ELEMENT PART-1-1.664 IS DISTORTING EXCESSIVELY.
   ELEMENT PART-1-1.664 IS DISTORTING EXCESSIVELY.
   ELEMENT PART-1-1.664 IS DISTORTING EXCESSIVELY.
   ELEMENT PART-1-1.664 IS DISTORTING EXCESSIVELY.
   ELEMENT PART-1-1.664 IS DISTORTING EXCESSIVELY.
   ELEMENT PART-1-1.664 IS DISTORTING EXCESSIVELY.
   ELEMENT PART-1-1.664 IS DISTORTING EXCESSIVELY.
   ELEMENT PART-1-1.665 IS DISTORTING EXCESSIVELY.
   ELEMENT PART-1-1.665 IS DISTORTING EXCESSIVELY.
   ELEMENT PART-1-1.665 IS DISTORTING EXCESSIVELY.
   ELEMENT PART-1-1.665 IS DISTORTING EXCESSIVELY.
   ELEMENT PART-1-1.665 IS DISTORTING EXCESSIVELY.
   ELEMENT PART-1-1.665 IS DISTORTING EXCESSIVELY.
   ELEMENT PART-1-1.665 IS DISTORTING EXCESSIVELY.
   ELEMENT PART-1-1.665 IS DISTORTING EXCESSIVELY.
   ELEMENT PART-1-1.666 IS DISTORTING EXCESSIVELY.
   ELEMENT PART-1-1.666 IS DISTORTING EXCESSIVELY.
   ELEMENT PART-1-1.666 IS DISTORTING EXCESSIVELY.
   ELEMENT PART-1-1.666 IS DISTORTING EXCESSIVELY.
   ELEMENT PART-1-1.666 IS DISTORTING EXCESSIVELY.
   ELEMENT PART-1-1.666 IS DISTORTING EXCESSIVELY.
   ELEMENT PART-1-1.667 IS DISTORTING EXCESSIVELY.
   ELEMENT PART-1-1.667 IS DISTORTING EXCESSIVELY.
   ELEMENT PART-1-1.667 IS DISTORTING EXCESSIVELY.
   ELEMENT PART-1-1.667 IS DISTORTING EXCESSIVELY.
   ELEMENT PART-1-1.667 IS DISTORTING EXCESSIVELY.
   ELEMENT PART-1-1.668 IS DISTORTING EXCESSIVELY.
   ELEMENT PART-1-1.668 IS DISTORTING EXCESSIVELY.
   ELEMENT PART-1-1.668 IS DISTORTING EXCESSIVELY.
   ELEMENT PART-1-1.668 IS DISTORTING EXCESSIVELY.
   ELEMENT PART-1-1.668 IS DISTORTING EXCESSIVELY.
   ELEMENT PART-1-1.693 IS DISTORTING EXCESSIVELY.
   ELEMENT PART-1-1.693 IS DISTORTING EXCESSIVELY.
   ELEMENT PART-1-1.693 IS DISTORTING EXCESSIVELY.
   ELEMENT PART-1-1.693 IS DISTORTING EXCESSIVELY.
   ELEMENT PART-1-1.694 IS DISTORTING EXCESSIVELY.
   ELEMENT PART-1-1.694 IS DISTORTING EXCESSIVELY.
   ELEMENT PART-1-1.694 IS DISTORTING EXCESSIVELY.
   ELEMENT PART-1-1.694 IS DISTORTING EXCESSIVELY.
   ELEMENT PART-1-1.694 IS DISTORTING EXCESSIVELY.
   ELEMENT PART-1-1.694 IS DISTORTING EXCESSIVELY.
   ELEMENT PART-1-1.695 IS DISTORTING EXCESSIVELY.
   ELEMENT PART-1-1.695 IS DISTORTING EXCESSIVELY.
   ELEMENT PART-1-1.695 IS DISTORTING EXCESSIVELY.
   ELEMENT PART-1-1.695 IS DISTORTING EXCESSIVELY.
   ELEMENT PART-1-1.695 IS DISTORTING EXCESSIVELY.
   ELEMENT PART-1-1.695 IS DISTORTING EXCESSIVELY.
   ELEMENT PART-1-1.696 IS DISTORTING EXCESSIVELY.
   ELEMENT PART-1-1.696 IS DISTORTING EXCESSIVELY.
   ELEMENT PART-1-1.696 IS DISTORTING EXCESSIVELY.
   ELEMENT PART-1-1.696 IS DISTORTING EXCESSIVELY.
   ELEMENT PART-1-1.696 IS DISTORTING EXCESSIVELY.
   ELEMENT PART-1-1.696 IS DISTORTING EXCESSIVELY.
   ELEMENT PART-1-1.696 IS DISTORTING EXCESSIVELY.
   ELEMENT PART-1-1.696 IS DISTORTING EXCESSIVELY.
   ELEMENT PART-1-1.697 IS DISTORTING EXCESSIVELY.
   ELEMENT PART-1-1.697 IS DISTORTING EXCESSIVELY.
   ELEMENT PART-1-1.697 IS DISTORTING EXCESSIVELY.
   ELEMENT PART-1-1.697 IS DISTORTING EXCESSIVELY.
   ELEMENT PART-1-1.697 IS DISTORTING EXCESSIVELY.
   ELEMENT PART-1-1.697 IS DISTORTING EXCESSIVELY.
   ELEMENT PART-1-1.704 IS DISTORTING EXCESSIVELY.
   ELEMENT PART-1-1.704 IS DISTORTING EXCESSIVELY.
   ELEMENT PART-1-1.704 IS DISTORTING EXCESSIVELY.
   ELEMENT PART-1-1.704 IS DISTORTING EXCESSIVELY.
   ELEMENT PART-1-1.704 IS DISTORTING EXCESSIVELY.
   ELEMENT PART-1-1.704 IS DISTORTING EXCESSIVELY.
   ELEMENT PART-1-1.705 IS DISTORTING EXCESSIVELY.
   ELEMENT PART-1-1.705 IS DISTORTING EXCESSIVELY.
   ELEMENT PART-1-1.705 IS DISTORTING EXCESSIVELY.
   ELEMENT PART-1-1.705 IS DISTORTING EXCESSIVELY.
   ELEMENT PART-1-1.705 IS DISTORTING EXCESSIVELY.
   ELEMENT PART-1-1.705 IS DISTORTING EXCESSIVELY.
   ELEMENT PART-1-1.705 IS DISTORTING EXCESSIVELY.
   ELEMENT PART-1-1.705 IS DISTORTING EXCESSIVELY.
   ELEMENT PART-1-1.706 IS DISTORTING EXCESSIVELY.
   ELEMENT PART-1-1.706 IS DISTORTING EXCESSIVELY.
   ELEMENT PART-1-1.706 IS DISTORTING EXCESSIVELY.
   ELEMENT PART-1-1.706 IS DISTORTING EXCESSIVELY.
   ELEMENT PART-1-1.706 IS DISTORTING EXCESSIVELY.
   ELEMENT PART-1-1.706 IS DISTORTING EXCESSIVELY.
   ELEMENT PART-1-1.707 IS DISTORTING EXCESSIVELY.
   ELEMENT PART-1-1.707 IS DISTORTING EXCESSIVELY.
   ELEMENT PART-1-1.707 IS DISTORTING EXCESSIVELY.
   ELEMENT PART-1-1.707 IS DISTORTING EXCESSIVELY.
   ELEMENT PART-1-1.707 IS DISTORTING EXCESSIVELY.
   ELEMENT PART-1-1.707 IS DISTORTING EXCESSIVELY.
   ELEMENT PART-1-1.708 IS DISTORTING EXCESSIVELY.
   ELEMENT PART-1-1.708 IS DISTORTING EXCESSIVELY.
   ELEMENT PART-1-1.708 IS DISTORTING EXCESSIVELY.
   ELEMENT PART-1-1.708 IS DISTORTING EXCESSIVELY.
   ELEMENT PART-1-1.733 IS DISTORTING EXCESSIVELY.
   ELEMENT PART-1-1.733 IS DISTORTING EXCESSIVELY.
   ELEMENT PART-1-1.733 IS DISTORTING EXCESSIVELY.
   ELEMENT PART-1-1.733 IS DISTORTING EXCESSIVELY.
   ELEMENT PART-1-1.733 IS DISTORTING EXCESSIVELY.
   ELEMENT PART-1-1.733 IS DISTORTING EXCESSIVELY.
   ELEMENT PART-1-1.733 IS DISTORTING EXCESSIVELY.
   ELEMENT PART-1-1.734 IS DISTORTING EXCESSIVELY.
   ELEMENT PART-1-1.734 IS DISTORTING EXCESSIVELY.
   ELEMENT PART-1-1.734 IS DISTORTING EXCESSIVELY.
   ELEMENT PART-1-1.734 IS DISTORTING EXCESSIVELY.
   ELEMENT PART-1-1.734 IS DISTORTING EXCESSIVELY.
   ELEMENT PART-1-1.735 IS DISTORTING EXCESSIVELY.
   ELEMENT PART-1-1.735 IS DISTORTING EXCESSIVELY.
   ELEMENT PART-1-1.735 IS DISTORTING EXCESSIVELY.
   ELEMENT PART-1-1.735 IS DISTORTING EXCESSIVELY.
   ELEMENT PART-1-1.735 IS DISTORTING EXCESSIVELY.
   ELEMENT PART-1-1.736 IS DISTORTING EXCESSIVELY.
   ELEMENT PART-1-1.736 IS DISTORTING EXCESSIVELY.
   ELEMENT PART-1-1.736 IS DISTORTING EXCESSIVELY.
   ELEMENT PART-1-1.736 IS DISTORTING EXCESSIVELY.
   ELEMENT PART-1-1.736 IS DISTORTING EXCESSIVELY.
   ELEMENT PART-1-1.736 IS DISTORTING EXCESSIVELY.
   ELEMENT PART-1-1.736 IS DISTORTING EXCESSIVELY.
   ELEMENT PART-1-1.736 IS DISTORTING EXCESSIVELY.
   ELEMENT PART-1-1.737 IS DISTORTING EXCESSIVELY.
   ELEMENT PART-1-1.737 IS DISTORTING EXCESSIVELY.
   ELEMENT PART-1-1.737 IS DISTORTING EXCESSIVELY.
   ELEMENT PART-1-1.737 IS DISTORTING EXCESSIVELY.
   ELEMENT PART-1-1.737 IS DISTORTING EXCESSIVELY.
   ELEMENT PART-1-1.737 IS DISTORTING EXCESSIVELY.
[...]
 -2.285623947787722E-003 -1.004033636104534E-002  4.870338609715438E-003
  1.681747103843821E-003  4.870338609715438E-003 -7.470850134786657E-003
 -3.316758204762130E-003 -1.606127938153603E-003  1.991706343731109E-003
 -1.606127938153603E-003 -3.757869768335962E-003  1.681747103843821E-003
  1.991706343731109E-003  1.681747103843821E-003 -3.193727320666621E-003
 -6.285705258678265E-003 -2.285623947787722E-003  1.681747103843821E-003
 -2.285623947787722E-003 -1.004033636104534E-002  4.870338609715438E-003
  1.681747103843821E-003  4.870338609715438E-003 -7.470850134786657E-003
  1.811892770203315E-002  4.214499998752420E-003 -3.193727320666622E-003
  4.214499998752420E-003  2.324940852279999E-002 -7.470850134786654E-003
 -3.193727320666622E-003 -7.470850134786654E-003  1.988868888214482E-002
 DDSDDE
  2.402462226794740E-002  1.957029810424676E-002  1.964437850179076E-002
 -7.354275963463396E-005 -3.503888645384066E-005  2.355096365824705E-004
  1.957029810424675E-002  2.444099557374618E-002  1.922800511054018E-002
 -9.805456036353961E-005  6.489517368055752E-005 -4.365372401637528E-005
  1.964437850179078E-002  1.922800511054018E-002  2.436691554764542E-002
  1.715973447070597E-004 -2.985628813792061E-005 -1.918559657522561E-004
 -7.354275963463331E-005 -9.805456036353791E-005  1.715973447070581E-004
  2.318707119888063E-003 -1.574922455136393E-004 -6.178605337858943E-005
 -3.503888645384467E-005  6.489517368055752E-005 -2.985628813791723E-005
 -1.574922455136388E-004  2.093704609480968E-003 -8.567757543634332E-005
  2.355096365824717E-004 -4.365372401637701E-005 -1.918559657522585E-004
 -6.178605337858859E-005 -8.567757543634502E-005  2.282004884379826E-003

               CONVERGENCE CHECKS FOR EQUILIBRIUM ITERATION     9


 AVERAGE FORCE                      6.461E-06   TIME AVG. FORCE       5.861E-06
 LARGEST RESIDUAL FORCE             3.909E-08   AT NODE          2   DOF  3
   INSTANCE:                                                                                 
 LARGEST INCREMENT OF DISP.         3.248E-02   AT NODE        841   DOF  3
   INSTANCE: PART-1-1                                                                        
 LARGEST CORRECTION TO DISP.        7.995E-06   AT NODE        849   DOF  1
   INSTANCE: PART-1-1                                                                        
          FORCE     EQUILIBRIUM NOT ACHIEVED WITHIN TOLERANCE.

 AVERAGE MOMENT                      0.00       TIME AVG. MOMENT      1.000E-02
 LARGEST RESIDUAL MOMENT            9.853E-18   AT NODE          2   DOF  5
   INSTANCE:                                                                                 
 LARGEST INCREMENT OF ROTATION     -4.717E-18   AT NODE          2   DOF  5
   INSTANCE: {assembly node}                                                                 
 LARGEST CORRECTION TO ROTATION     1.366E-17   AT NODE          2   DOF  5
   INSTANCE: {assembly node}                                                                 
          THERE IS ZERO MOMENT    EVERYWHERE

 AVERAGE CAV. VOL.                  1.303E-02   TIME AVG. CAV. VOL.   1.303E-02
 ALL CAV. VOL. RESIDUALS ARE ZERO
 LARGEST INCREMENT OF H.PRESS.      1.000E-05   AT NODE          1   DOF  8
   INSTANCE: {assembly node}                                                                 
 LARGEST CORRECTION TO H.PRESS.     3.196E-35   AT NODE          1   DOF  8
   INSTANCE: {assembly node}                                                                 
          THE CAV. VOL. EQUILIBRIUM EQUATIONS HAVE CONVERGED

  NUMBER OF EQUATIONS =     14836     NUMBER OF RHS =    1
  NUMBER OF FLOATING PT. OPERATIONS =  7.56E+08

     CHECK POINT   START OF SOLVER    

     CHECK POINT  END OF SOLVER       

       ELAPSED USER TIME (SEC)      =  0.22000    
       ELAPSED SYSTEM TIME (SEC)    =  2.00000E-02
       ELAPSED TOTAL CPU TIME (SEC) =  0.24000    
       ELAPSED WALLCLOCK TIME (SEC) =          0
 ***************************************************
 deformation gradient
  0.965991434421420      -0.145830565686334      -0.348231178821814     
 -0.156112437517920       0.869618260888081      -0.359730124734023     
  0.467804747200911       0.705584121712630       0.706299826044648     
 J
   1.02699416262984     
 C
   1.07567095916758      -0.152350954971587       0.103044026143940     
 -0.152350954971587       0.910012775458953       0.286481372943332     
  0.103044026143940       0.286481372943332        1.21554967858739     
 Chat
   1.05673832924569      -0.149669461877309       0.101230372632132     
 -0.149669461877309       0.893995856014288       0.281439082113386     
  0.101230372632132       0.281439082113386        1.19415507643677     
 I1hat, I2hat, I4ahat, I4shat
   3.14488926169675        3.16234232424136        1.05673832924569     
  0.893995856014288     
 S^hat
  3.313167075692683E-003  1.412160760285473E-004 -9.551284422827594E-005
  1.412160760285473E-004  3.979080586803177E-003 -2.655433000067058E-004
 -9.551284422827594E-005 -2.655433000067058E-004  2.716848876270295E-003
 S_iso
 -1.137708009444510E-005 -5.460632598886068E-004  3.444441741895376E-004
 -5.460632598886068E-004 -2.273096260423152E-004  7.720398527495400E-004
  3.444441741895376E-004  7.720398527495400E-004 -3.789479539281191E-004
 S
  5.269816623500452E-004 -4.331916141719909E-004  2.722050235325411E-004
 -4.331916141719909E-004  4.544681868973582E-004  6.017898034501242E-004
  2.722050235325411E-004  6.017898034501242E-004  1.234372965241825E-004
 sigma
  7.970918434667085E-004 -1.202179298019640E-004 -9.961029007198028E-006
 -1.202179298019640E-004  1.176932664299988E-003  1.718845807354568E-004
 -9.961029007197982E-006  1.718845807354567E-004 -3.543750428271257E-004
 Psi24a
  5.806857197590196E-005
 CChat
  5.690813424362954E-003  2.427425960674976E-004 -1.641812774989957E-004
  2.427425960674976E-004  8.654766620588436E-003 -4.564541929272102E-004
 -1.641812774989957E-004 -4.564541929272102E-004  6.500218549955840E-003
  2.427425960674976E-004 -9.002426085945862E-004 -7.004369423810968E-006
 -9.002426085945862E-004  2.915343325520919E-004 -1.947343717269602E-005
 -7.004369423810968E-006 -1.947343717269602E-005  1.996451669897974E-004
 -1.641812774989957E-004 -7.004369423810968E-006 -9.058611211359432E-004
 -7.004369423810968E-006 -1.971820353272904E-004  1.317104556062608E-005
 -9.058611211359432E-004  1.317104556062608E-005 -1.350319189705417E-004
  2.427425960674976E-004 -9.002426085945862E-004 -7.004369423810968E-006
 -9.002426085945862E-004  2.915343325520919E-004 -1.947343717269602E-005
 -7.004369423810968E-006 -1.947343717269602E-005  1.996451669897974E-004
  8.654766620588436E-003  2.915343325520919E-004 -1.971820353272904E-004
  2.915343325520919E-004  8.207121108356977E-003 -5.482023782864861E-004
 -1.971820353272904E-004 -5.482023782864861E-004  7.441068405789680E-003
 -4.564541929272102E-004 -1.947343717269602E-005  1.317104556062608E-005
 -1.947343717269602E-005 -5.482023782864861E-004 -8.739806607080022E-004
  1.317104556062608E-005 -8.739806607080022E-004 -3.754136070325564E-004
 -1.641812774989957E-004 -7.004369423810968E-006 -9.058611211359432E-004
 -7.004369423810968E-006 -1.971820353272904E-004  1.317104556062608E-005
 -9.058611211359432E-004  1.317104556062608E-005 -1.350319189705417E-004
 -4.564541929272102E-004 -1.947343717269602E-005  1.317104556062608E-005
 -1.947343717269602E-005 -5.482023782864861E-004 -8.739806607080022E-004
  1.317104556062608E-005 -8.739806607080022E-004 -3.754136070325564E-004
  6.500218549955840E-003  1.996451669897974E-004 -1.350319189705417E-004
  1.996451669897974E-004  7.441068405789680E-003 -3.754136070325564E-004
 -1.350319189705417E-004 -3.754136070325564E-004  3.849090092816762E-003
 dShat/dC
 -6.500870449351832E-004 -4.625381669610177E-005  3.128421149561556E-005
 -4.625381669610177E-005  2.241944405991384E-004  8.697587037403027E-005
  3.128421149561556E-005  8.697587037403027E-005  3.204278561798507E-004
 -6.200033241356276E-004 -4.937857055891571E-004  2.051345882720532E-005
 -4.937857055891571E-004 -7.281457039670726E-004  5.703119402987249E-005
  2.051345882720532E-005  5.703119402987249E-005 -5.248307453293993E-004
  3.923186022386778E-004  1.921946801975025E-005 -4.764557556787944E-004
  1.921946801975025E-005  4.606283385736615E-004 -3.614036805063270E-005
 -4.764557556787944E-004 -3.614036805063270E-005  3.322043449761344E-004
 -6.200033241356276E-004 -4.937857055891571E-004  2.051345882720532E-005
 -4.937857055891571E-004 -7.281457039670726E-004  5.703119402987249E-005
  2.051345882720532E-005  5.703119402987249E-005 -5.248307453293993E-004
 -8.634142545258026E-005 -6.665558218501240E-005  4.508314079549366E-005
 -6.665558218501240E-005 -1.117384150419788E-003  1.253394355306848E-004
  4.508314079549366E-005  1.253394355306848E-004  3.299879739082157E-006
  8.892169580463707E-004  4.378610383657065E-005 -2.961515029110463E-005
  4.378610383657065E-005  1.043094435580666E-003 -5.457920573764788E-004
 -2.961515029110463E-005 -5.457920573764788E-004  7.538242204087545E-004
  3.923186022386778E-004  1.921946801975025E-005 -4.764557556787944E-004
  1.921946801975025E-005  4.606283385736615E-004 -3.614036805063270E-005
 -4.764557556787944E-004 -3.614036805063270E-005  3.322043449761344E-004
  8.892169580463707E-004  4.378610383657065E-005 -2.961515029110463E-005
  4.378610383657065E-005  1.043094435580666E-003 -5.457920573764788E-004
 -2.961515029110463E-005 -5.457920573764788E-004  7.538242204087545E-004
 -1.156131108937062E-006 -5.684247608257458E-005  3.844595258776996E-005
 -5.684247608257458E-005 -1.141686105137255E-004  1.068868297719006E-004
  3.844595258776996E-005  1.068868297719006E-004 -8.292311183680328E-004
 CCvol
  1.936448044223453E-002  4.059933653232350E-003 -2.598404204804530E-003
  4.059933653232350E-003  2.580119986891120E-002 -6.425006899441051E-003
 -2.598404204804530E-003 -6.425006899441051E-003  1.902730688175440E-002
  4.059933653232350E-003  2.121953053808998E-004 -3.941771532372122E-004
  2.121953053808998E-004  5.141502252220476E-003 -1.229740017322689E-003
 -3.941771532372122E-004 -1.229740017322689E-003  3.948825710961171E-003
 -2.598404204804530E-003 -3.941771532372122E-004 -1.297226286736752E-004
 -3.941771532372122E-004 -3.398959508463582E-003  7.416270660183734E-004
 -1.297226286736752E-004  7.416270660183734E-004 -2.424777094321332E-003
  4.059933653232350E-003  2.121953053808998E-004 -3.941771532372122E-004
  2.121953053808998E-004  5.141502252220476E-003 -1.229740017322689E-003
 -3.941771532372122E-004 -1.229740017322689E-003  3.948825710961171E-003
  2.580119986891120E-002  5.141502252220476E-003 -3.398959508463582E-003
  5.141502252220476E-003  3.105618012821492E-002 -7.755189590406887E-003
 -3.398959508463582E-003 -7.755189590406887E-003  2.401547753093219E-002
 -6.425006899441051E-003 -1.229740017322689E-003  7.416270660183735E-004
 -1.229740017322689E-003 -7.755189590406887E-003  1.371113776927675E-003
  7.416270660183735E-004  1.371113776927675E-003 -5.714607883589766E-003
 -2.598404204804530E-003 -3.941771532372122E-004 -1.297226286736752E-004
 -3.941771532372122E-004 -3.398959508463582E-003  7.416270660183734E-004
 -1.297226286736752E-004  7.416270660183734E-004 -2.424777094321332E-003
 -6.425006899441051E-003 -1.229740017322689E-003  7.416270660183735E-004
 -1.229740017322689E-003 -7.755189590406887E-003  1.371113776927675E-003
  7.416270660183735E-004  1.371113776927675E-003 -5.714607883589766E-003
  1.902730688175440E-002  3.948825710961171E-003 -2.424777094321331E-003
  3.948825710961171E-003  2.401547753093218E-002 -5.714607883589766E-003
 -2.424777094321331E-003 -5.714607883589766E-003  1.686304776208833E-002
 CCiso
  2.880048308932212E-003  1.132671605059164E-003 -7.183554334886037E-004
  1.132671605059164E-003 -1.711728611233497E-003  1.392982307420710E-004
 -7.183554334886037E-004  1.392982307420710E-004 -9.083761012335708E-004
  1.132671605059166E-003  3.373919860801497E-003 -1.211951721263746E-003
  3.373919860801497E-003  1.575356043102040E-003 -1.055885397653304E-003
 -1.211951721263746E-003 -1.055885397653304E-003  2.656758324295299E-004
 -7.183554334886040E-004 -1.211951721263746E-003  2.121429900895705E-003
 -1.211951721263746E-003 -3.589118721462749E-004  9.401214499137467E-004
  2.121429900895705E-003  9.401214499137467E-004 -7.689524439340816E-004
  1.132671605059166E-003  3.373919860801497E-003 -1.211951721263746E-003
  3.373919860801497E-003  1.575356043102040E-003 -1.055885397653304E-003
 -1.211951721263746E-003 -1.055885397653304E-003  2.656758324295299E-004
 -1.711728611233498E-003  1.575356043102042E-003 -3.589118721462752E-004
  1.575356043102042E-003  5.593717764028273E-003 -2.285152082033882E-003
 -3.589118721462752E-004 -2.285152082033882E-003 -7.660650161826087E-004
  1.392982307420703E-004 -1.055885397653304E-003  9.401214499137467E-004
 -1.055885397653304E-003 -2.285152082033879E-003  3.499228570991851E-003
  9.401214499137467E-004  3.499228570991851E-003 -1.756248317815185E-003
 -7.183554334886040E-004 -1.211951721263746E-003  2.121429900895705E-003
 -1.211951721263746E-003 -3.589118721462749E-004  9.401214499137467E-004
  2.121429900895705E-003  9.401214499137467E-004 -7.689524439340816E-004
  1.392982307420703E-004 -1.055885397653304E-003  9.401214499137467E-004
 -1.055885397653304E-003 -2.285152082033879E-003  3.499228570991851E-003
  9.401214499137467E-004  3.499228570991851E-003 -1.756248317815185E-003
 -9.083761012335689E-004  2.656758324295292E-004 -7.689524439340820E-004
  2.656758324295292E-004 -7.660650161826087E-004 -1.756248317815187E-003
 -7.689524439340820E-004 -1.756248317815187E-003  3.025649635991084E-003
 CC_ref
  2.224452875116674E-002  5.192605258291514E-003 -3.316759638293133E-003
  5.192605258291514E-003  2.408947125767771E-002 -6.285708668698980E-003
 -3.316759638293133E-003 -6.285708668698980E-003  1.811893078052083E-002
  5.192605258291516E-003  3.586115166182397E-003 -1.606128874500959E-003
  3.586115166182397E-003  6.716858295322516E-003 -2.285625414975992E-003
 -1.606128874500959E-003 -2.285625414975992E-003  4.214501543390701E-003
 -3.316759638293133E-003 -1.606128874500959E-003  1.991707272222030E-003
 -1.606128874500959E-003 -3.757871380609857E-003  1.681748515932120E-003
  1.991707272222030E-003  1.681748515932120E-003 -3.193729538255414E-003
  5.192605258291516E-003  3.586115166182397E-003 -1.606128874500959E-003
  3.586115166182397E-003  6.716858295322516E-003 -2.285625414975992E-003
 -1.606128874500959E-003 -2.285625414975992E-003  4.214501543390701E-003
  2.408947125767771E-002  6.716858295322518E-003 -3.757871380609858E-003
  6.716858295322518E-003  3.664989789224320E-002 -1.004034167244077E-002
 -3.757871380609858E-003 -1.004034167244077E-002  2.324941251474958E-002
 -6.285708668698981E-003 -2.285625414975993E-003  1.681748515932120E-003
 -2.285625414975993E-003 -1.004034167244077E-002  4.870342347919525E-003
  1.681748515932120E-003  4.870342347919525E-003 -7.470856201404951E-003
 -3.316759638293133E-003 -1.606128874500959E-003  1.991707272222030E-003
 -1.606128874500959E-003 -3.757871380609857E-003  1.681748515932120E-003
  1.991707272222030E-003  1.681748515932120E-003 -3.193729538255414E-003
 -6.285708668698981E-003 -2.285625414975993E-003  1.681748515932120E-003
 -2.285625414975993E-003 -1.004034167244077E-002  4.870342347919525E-003
  1.681748515932120E-003  4.870342347919525E-003 -7.470856201404951E-003
  1.811893078052083E-002  4.214501543390700E-003 -3.193729538255414E-003
  4.214501543390700E-003  2.324941251474958E-002 -7.470856201404953E-003
 -3.193729538255414E-003 -7.470856201404953E-003  1.988869739807941E-002
 DDSDDE
  2.402462264211242E-002  1.957029816694981E-002  1.964437864467770E-002
 -7.354275677410159E-005 -3.503890216392597E-005  2.355096437590278E-004
  1.957029816694981E-002  2.444099639339775E-002  1.922800480794049E-002
 -9.805458545345894E-005  6.489516979275567E-005 -4.365362288984430E-005
  1.964437864467768E-002  1.922800480794049E-002  2.436691628711334E-002
  1.715973669364518E-004 -2.985626854001640E-005 -1.918560740554050E-004
 -7.354275677409899E-005 -9.805458545345857E-005  1.715973669364505E-004
  2.318707350601473E-003 -1.574922289064568E-004 -6.178607724648935E-005
 -3.503890216392191E-005  6.489516979275862E-005 -2.985626854001476E-005
 -1.574922289064560E-004  2.093704666459851E-003 -8.567756929806721E-005
  2.355096437590329E-004 -4.365362288984183E-005 -1.918560740554032E-004
 -6.178607724649102E-005 -8.567756929806718E-005  2.282005099408972E-003

               CONVERGENCE CHECKS FOR EQUILIBRIUM ITERATION    10


 AVERAGE FORCE                      6.461E-06   TIME AVG. FORCE       5.861E-06
 LARGEST RESIDUAL FORCE            -2.769E-08   AT NODE          2   DOF  3
   INSTANCE:                                                                                 
 LARGEST INCREMENT OF DISP.         3.248E-02   AT NODE        841   DOF  3
   INSTANCE: PART-1-1                                                                        
 LARGEST CORRECTION TO DISP.       -5.894E-06   AT NODE        849   DOF  1
   INSTANCE: PART-1-1                                                                        
          THE FORCE     EQUILIBRIUM EQUATIONS HAVE CONVERGED BASED ON ALTERNATIVE
          RESIDUAL CRITERION

 AVERAGE MOMENT                      0.00       TIME AVG. MOMENT      1.000E-02
 LARGEST RESIDUAL MOMENT           -4.594E-18   AT NODE          2   DOF  5
   INSTANCE:                                                                                 
 LARGEST INCREMENT OF ROTATION      1.330E-17   AT NODE          2   DOF  5
   INSTANCE: {assembly node}                                                                 
 LARGEST CORRECTION TO ROTATION     1.802E-17   AT NODE          2   DOF  5
   INSTANCE: {assembly node}                                                                 
          THERE IS ZERO MOMENT    EVERYWHERE

 AVERAGE CAV. VOL.                  1.303E-02   TIME AVG. CAV. VOL.   1.303E-02
 ALL CAV. VOL. RESIDUALS ARE ZERO
 LARGEST INCREMENT OF H.PRESS.      1.000E-05   AT NODE          1   DOF  8
   INSTANCE: {assembly node}                                                                 
 LARGEST CORRECTION TO H.PRESS.     3.196E-35   AT NODE          1   DOF  8
   INSTANCE: {assembly node}                                                                 
          THE CAV. VOL. EQUILIBRIUM EQUATIONS HAVE CONVERGED

 ITERATION SUMMARY FOR THE INCREMENT:  10 TOTAL ITERATIONS, OF WHICH
   0 ARE SEVERE DISCONTINUITY ITERATIONS AND 10 ARE EQUILIBRIUM ITERATIONS.

 TIME INCREMENT COMPLETED   1.00    ,  FRACTION OF STEP COMPLETED   1.00    
 STEP TIME COMPLETED        10.0    ,  TOTAL TIME COMPLETED         30.0    


          THE ANALYSIS HAS BEEN COMPLETED



     ANALYSIS SUMMARY:
     TOTAL OF         35  INCREMENTS
                       1  CUTBACKS IN AUTOMATIC INCREMENTATION
                     160  ITERATIONS INCLUDING CONTACT ITERATIONS IF PRESENT
                     160  PASSES THROUGH THE EQUATION SOLVER OF WHICH 
                     160  INVOLVE MATRIX DECOMPOSITION, INCLUDING
                       0  DECOMPOSITION(S) OF THE MASS MATRIX
                       1  REORDERING OF EQUATIONS TO MINIMIZE WAVEFRONT
                       0  ADDITIONAL RESIDUAL EVALUATIONS FOR LINE SEARCHES
                       0  ADDITIONAL OPERATOR EVALUATIONS FOR LINE SEARCHES
                   11861  WARNING MESSAGES DURING USER INPUT PROCESSING
                       2  WARNING MESSAGES DURING ANALYSIS
                       0  ANALYSIS WARNINGS ARE NUMERICAL PROBLEM MESSAGES
                       1  ANALYSIS WARNINGS ARE NEGATIVE EIGENVALUE MESSAGES
                       0  ERROR MESSAGES



     JOB TIME SUMMARY
       USER TIME (SEC)      =   463.05    
       SYSTEM TIME (SEC)    =   7.8400    
       TOTAL CPU TIME (SEC) =   470.89    
       WALLCLOCK TIME (SEC) =        484
