*Heading
** Job name: SKIN-JOB Model name: Model-1
** Generated by: Abaqus/CAE 2018
*Preprint, echo=NO, model=NO, history=NO, contact=NO
**
** PARTS
**
*Part, name=INFLATOR_EDGES
*Node
      1,   2.24000001,  -3.99000001,           0.
      2,  -2.24000001,  -3.99000001,           0.
      3,   2.24000001,   3.99000001,           0.
      4,  -2.24000001,   3.99000001,           0.
      5,         2.25,          -4.,           0.
      6,        -2.25,          -4.,           0.
      7,        -2.25,           4.,           0.
      8,         2.25,           4.,           0.
      9,   1.74222219,  -3.99000001,           0.
     10,   1.24444449,  -3.99000001,           0.
     11,   0.74666667,  -3.99000001,           0.
     12,  0.248888895,  -3.99000001,           0.
     13, -0.248888895,  -3.99000001,           0.
     14,  -0.74666667,  -3.99000001,           0.
     15,  -1.24444449,  -3.99000001,           0.
     16,  -1.74222219,  -3.99000001,           0.
     17,   2.24000001,   3.49125004,           0.
     18,   2.24000001,   2.99250007,           0.
     19,   2.24000001,    2.4937501,           0.
     20,   2.24000001,        1.995,           0.
** ... 180 like lines cut
*Element, type=C3D8R
 1,  41,  64,  63,  40, 141, 164, 163, 140
 2,  54,   4,   7,  77, 154, 104, 107, 177
 3,  33,  79,  78,  32, 133, 179, 178, 132
 4,  18,  87,  86,  17, 118, 187, 186, 117
 5,  10,  56,  55,   9, 110, 156, 155, 109
 6,   5, 100,  31,   1, 105, 200, 131, 101
 7,   9,  55,   5,   1, 109, 155, 105, 101
 8,  56,  10,  11,  57, 156, 110, 111, 157
 9,  57,  11,  12,  58, 157, 111, 112, 158
10,  12,  13,  59,  58, 112, 113, 159, 158
11,  13,  14,  60,  59, 113, 114, 160, 159
12,  62,  61,  15,  16, 162, 161, 115, 116
13,  17,  86,   8,   3, 117, 186, 108, 103
14,  87,  18,  19,  88, 187, 118, 119, 188
15,  88,  19,  20,  89, 188, 119, 120, 189
16,  89,  20,  21,  90, 189, 120, 121, 190
17,  90,  21,  22,  91, 190, 121, 122, 191
18,  91,  22,  23,  92, 191, 122, 123, 192
19,  92,  23,  24,  93, 192, 123, 124, 193
20,  24,  25,  94,  93, 124, 125, 194, 193
** ... 30 like lines cut
*Nset, nset=_PickedSet2, internal, generate
   1,  200,    1
*Elset, elset=_PickedSet2, internal, generate
  1,  50,   1
*Orientation, name=Ori-1
1., 0., 0., 0., 1., 0.
1, 0.
** Section: Section-2
*Solid Section, elset=_PickedSet2, orientation=Ori-1, material=SAMPLE_MAT_2
,
*End Part
**  
*Part, name=INFLATOR_FACE
*Node
      1,         2.25,           4., 0.00999999978
      2,         2.25,          3.5, 0.00999999978
      3,         2.25,           3., 0.00999999978
      4,         2.25,          2.5, 0.00999999978
      5,         2.25,           2., 0.00999999978
      6,         2.25,          1.5, 0.00999999978
      7,         2.25,           1., 0.00999999978
      8,         2.25,          0.5, 0.00999999978
      9,         2.25,           0., 0.00999999978
     10,         2.25,         -0.5, 0.00999999978
     11,         2.25,          -1., 0.00999999978
     12,         2.25,         -1.5, 0.00999999978
     13,         2.25,          -2., 0.00999999978
     14,         2.25,         -2.5, 0.00999999978
     15,         2.25,          -3., 0.00999999978
     16,         2.25,         -3.5, 0.00999999978
     17,         2.25,          -4., 0.00999999978
     18,         2.25,           4.,           0.
     19,         2.25,          3.5,           0.
     20,         2.25,           3.,           0.
** ... 320 like lines cut
*Element, type=C3D8R
  1,  35,  36,  53,  52,   1,   2,  19,  18
  2,  36,  37,  54,  53,   2,   3,  20,  19
  3,  37,  38,  55,  54,   3,   4,  21,  20
  4,  38,  39,  56,  55,   4,   5,  22,  21
  5,  39,  40,  57,  56,   5,   6,  23,  22
  6,  40,  41,  58,  57,   6,   7,  24,  23
  7,  41,  42,  59,  58,   7,   8,  25,  24
  8,  42,  43,  60,  59,   8,   9,  26,  25
  9,  43,  44,  61,  60,   9,  10,  27,  26
 10,  44,  45,  62,  61,  10,  11,  28,  27
 11,  45,  46,  63,  62,  11,  12,  29,  28
 12,  46,  47,  64,  63,  12,  13,  30,  29
 13,  47,  48,  65,  64,  13,  14,  31,  30
 14,  48,  49,  66,  65,  14,  15,  32,  31
 15,  49,  50,  67,  66,  15,  16,  33,  32
 16,  50,  51,  68,  67,  16,  17,  34,  33
 17,  69,  70,  87,  86,  35,  36,  53,  52
 18,  70,  71,  88,  87,  36,  37,  54,  53
 19,  71,  72,  89,  88,  37,  38,  55,  54
 20,  72,  73,  90,  89,  38,  39,  56,  55
** ... 124 like lines cut
*Nset, nset=_PickedSet2, internal, generate
   1,  340,    1
*Elset, elset=_PickedSet2, internal, generate
   1,  144,    1
*Orientation, name=Ori-1
1., 0., 0., 0., 1., 0.
1, 0.
** Section: Section-2
*Solid Section, elset=_PickedSet2, orientation=Ori-1, material=SAMPLE_MAT_2
,
*End Part
**  
*Part, name=Part-1
*Node
      1,          -5.,           5.,           0.
      2,        -4.75,           5.,           0.
      3,         -4.5,           5.,           0.
      4,        -4.25,           5.,           0.
      5,          -4.,           5.,           0.
      6,        -3.75,           5.,           0.
      7,         -3.5,           5.,           0.
      8,        -3.25,           5.,           0.
      9,          -3.,           5.,           0.
     10,        -2.75,           5.,           0.
     11,         -2.5,           5.,           0.
     12,        -2.25,           5.,           0.
     13,          -2.,           5.,           0.
     14,        -1.75,           5.,           0.
     15,         -1.5,           5.,           0.
     16,        -1.25,           5.,           0.
     17,          -1.,           5.,           0.
     18,        -0.75,           5.,           0.
     19,         -0.5,           5.,           0.
     20,        -0.25,           5.,           0.
** ... 5023 like lines cut
*Element, type=C3D8
   1, 1682, 1683, 1724, 1723,    1,    2,   43,   42
   2, 1683, 1684, 1725, 1724,    2,    3,   44,   43
   3, 1684, 1685, 1726, 1725,    3,    4,   45,   44
   4, 1685, 1686, 1727, 1726,    4,    5,   46,   45
   5, 1686, 1687, 1728, 1727,    5,    6,   47,   46
   6, 1687, 1688, 1729, 1728,    6,    7,   48,   47
   7, 1688, 1689, 1730, 1729,    7,    8,   49,   48
   8, 1689, 1690, 1731, 1730,    8,    9,   50,   49
   9, 1690, 1691, 1732, 1731,    9,   10,   51,   50
  10, 1691, 1692, 1733, 1732,   10,   11,   52,   51
  11, 1692, 1693, 1734, 1733,   11,   12,   53,   52
  12, 1693, 1694, 1735, 1734,   12,   13,   54,   53
  13, 1694, 1695, 1736, 1735,   13,   14,   55,   54
  14, 1695, 1696, 1737, 1736,   14,   15,   56,   55
  15, 1696, 1697, 1738, 1737,   15,   16,   57,   56
  16, 1697, 1698, 1739, 1738,   16,   17,   58,   57
  17, 1698, 1699, 1740, 1739,   17,   18,   59,   58
  18, 1699, 1700, 1741, 1740,   18,   19,   60,   59
  19, 1700, 1701, 1742, 1741,   19,   20,   61,   60
  20, 1701, 1702, 1743, 1742,   20,   21,   62,   61
** ... 3180 like lines cut
*Nset, nset=_PickedSet18, internal, generate
    1,  5043,     1
*Elset, elset=_PickedSet18, internal, generate
    1,  3200,     1
*Orientation, name=Ori-1
1., 0., 0., 0., 1., 0.
1, 0.
** Section: UMAT_Section
*Solid Section, elset=_PickedSet18, orientation=Ori-1, material=UMAT
,
*End Part
**  
**
** ASSEMBLY
**
*Assembly, name=Assembly
**  
*Instance, name=Part-1-1, part=Part-1
*End Instance
**  
*Instance, name=INFLATOR_FACE-2, part=INFLATOR_FACE
          0.,           0.,        -0.29
*End Instance
**  
*Instance, name=INFLATOR_EDGES-1, part=INFLATOR_EDGES
          0.,           0.,        -0.28
*End Instance
**  
*Node
      1,           0.,           0., -0.150000006
*Node
      2,           0.,           0., -0.100000001
*Nset, nset=Set-2, instance=Part-1-1
    1,    2,    3,    4,    5,    6,    7,    8,    9,   10,   11,   12,   13,   14,   15,   16
   17,   18,   19,   20,   21,   22,   23,   24,   25,   26,   27,   28,   29,   30,   31,   32
   33,   34,   35,   36,   37,   38,   39,   40,   41,   42,   43,   44,   45,   46,   47,   48
   49,   50,   51,   52,   53,   54,   55,   56,   57,   58,   59,   60,   61,   62,   63,   64
   65,   66,   67,   68,   69,   70,   71,   72,   73,   74,   75,   76,   77,   78,   79,   80
   81,   82,   83,   84,   85,   86,   87,   88,   89,   90,   91,   92,   93,   94,   95,   96
   97,   98,   99,  100,  101,  102,  103,  104,  105,  106,  107,  108,  109,  110,  111,  112
  113,  114,  115,  116,  117,  118,  119,  120,  121,  122,  123,  124,  125,  126,  127,  128
  129,  130,  131,  132,  133,  134,  135,  136,  137,  138,  139,  140,  141,  142,  143,  144
  145,  146,  147,  148,  149,  150,  151,  152,  153,  154,  155,  156,  157,  158,  159,  160
  161,  162,  163,  164,  165,  166,  167,  168,  169,  170,  171,  172,  173,  174,  175,  176
  177,  178,  179,  180,  181,  182,  183,  184,  185,  186,  187,  188,  189,  190,  191,  192
  193,  194,  195,  196,  197,  198,  199,  200,  201,  202,  203,  204,  205,  206,  207,  208
  209,  210,  211,  212,  213,  214,  215,  216,  217,  235,  236,  237,  238,  239,  240,  241
  242,  243,  244,  245,  246,  247,  248,  249,  250,  251,  252,  253,  254,  255,  256,  257
  258,  276,  277,  278,  279,  280,  281,  282,  283,  284,  285,  286,  287,  288,  289,  290
  291,  292,  293,  294,  295,  296,  297,  298,  299,  317,  318,  319,  320,  321,  322,  323
  324,  325,  326,  327,  328,  329,  330,  331,  332,  333,  334,  335,  336,  337,  338,  339
  340,  358,  359,  360,  361,  362,  363,  364,  365,  366,  367,  368,  369,  370,  371,  372
  373,  374,  375,  376,  377,  378,  379,  380,  381,  399,  400,  401,  402,  403,  404,  405
** ... 53 like lines cut
*Elset, elset=Set-2, instance=Part-1-1
    1,    2,    3,    4,    5,    6,    7,    8,    9,   10,   11,   12,   13,   14,   15,   16
   17,   18,   19,   20,   21,   22,   23,   24,   25,   26,   27,   28,   29,   30,   31,   32
   33,   34,   35,   36,   37,   38,   39,   40,   41,   42,   43,   44,   45,   46,   47,   48
   49,   50,   51,   52,   53,   54,   55,   56,   57,   58,   59,   60,   61,   62,   63,   64
   65,   66,   67,   68,   69,   70,   71,   72,   73,   74,   75,   76,   77,   78,   79,   80
   81,   82,   83,   84,   85,   86,   87,   88,   89,   90,   91,   92,   93,   94,   95,   96
   97,   98,   99,  100,  101,  102,  103,  104,  105,  106,  107,  108,  109,  110,  111,  112
  113,  114,  115,  116,  117,  118,  119,  120,  121,  122,  123,  124,  125,  126,  127,  128
  129,  130,  131,  132,  133,  134,  135,  136,  137,  138,  139,  140,  141,  142,  143,  144
  145,  146,  147,  148,  149,  150,  151,  152,  153,  154,  155,  156,  157,  158,  159,  160
  161,  162,  163,  164,  165,  166,  167,  168,  169,  170,  171,  190,  191,  192,  193,  194
  195,  196,  197,  198,  199,  200,  201,  202,  203,  204,  205,  206,  207,  208,  209,  210
  211,  230,  231,  232,  233,  234,  235,  236,  237,  238,  239,  240,  241,  242,  243,  244
  245,  246,  247,  248,  249,  250,  251,  270,  271,  272,  273,  274,  275,  276,  277,  278
  279,  280,  281,  282,  283,  284,  285,  286,  287,  288,  289,  290,  291,  310,  311,  312
  313,  314,  315,  316,  317,  318,  319,  320,  321,  322,  323,  324,  325,  326,  327,  328
  329,  330,  331,  350,  351,  352,  353,  354,  355,  356,  357,  358,  359,  360,  361,  362
  363,  364,  365,  366,  367,  368,  369,  370,  371,  390,  391,  392,  393,  394,  395,  396
  397,  398,  399,  400,  401,  402,  403,  404,  405,  406,  407,  408,  409,  410,  411,  430
  431,  432,  433,  434,  435,  436,  437,  438,  439,  440,  441,  442,  443,  444,  445,  446
** ... 46 like lines cut
*Nset, nset=_PickedSet31, internal
 1,
*Nset, nset=_PickedSet47, internal
 2,
*Nset, nset=_PickedSet48, internal, instance=INFLATOR_FACE-2, generate
   1,  340,    1
*Nset, nset=_PickedSet48, internal, instance=INFLATOR_EDGES-1, generate
   1,  200,    1
*Elset, elset=_PickedSet48, internal, instance=INFLATOR_FACE-2, generate
   1,  144,    1
*Elset, elset=_PickedSet48, internal, instance=INFLATOR_EDGES-1, generate
  1,  50,   1
*Elset, elset=_Cavity_surf_S2, internal, instance=Part-1-1
  172,  173,  174,  175,  176,  177,  178,  179,  180,  181,  182,  183,  184,  185,  186,  187
  188,  189,  212,  213,  214,  215,  216,  217,  218,  219,  220,  221,  222,  223,  224,  225
  226,  227,  228,  229,  252,  253,  254,  255,  256,  257,  258,  259,  260,  261,  262,  263
  264,  265,  266,  267,  268,  269,  292,  293,  294,  295,  296,  297,  298,  299,  300,  301
  302,  303,  304,  305,  306,  307,  308,  309,  332,  333,  334,  335,  336,  337,  338,  339
  340,  341,  342,  343,  344,  345,  346,  347,  348,  349,  372,  373,  374,  375,  376,  377
  378,  379,  380,  381,  382,  383,  384,  385,  386,  387,  388,  389,  412,  413,  414,  415
  416,  417,  418,  419,  420,  421,  422,  423,  424,  425,  426,  427,  428,  429,  452,  453
  454,  455,  456,  457,  458,  459,  460,  461,  462,  463,  464,  465,  466,  467,  468,  469
  492,  493,  494,  495,  496,  497,  498,  499,  500,  501,  502,  503,  504,  505,  506,  507
  508,  509,  532,  533,  534,  535,  536,  537,  538,  539,  540,  541,  542,  543,  544,  545
  546,  547,  548,  549,  572,  573,  574,  575,  576,  577,  578,  579,  580,  581,  582,  583
  584,  585,  586,  587,  588,  589,  612,  613,  614,  615,  616,  617,  618,  619,  620,  621
  622,  623,  624,  625,  626,  627,  628,  629,  652,  653,  654,  655,  656,  657,  658,  659
  660,  661,  662,  663,  664,  665,  666,  667,  668,  669,  692,  693,  694,  695,  696,  697
  698,  699,  700,  701,  702,  703,  704,  705,  706,  707,  708,  709,  732,  733,  734,  735
  736,  737,  738,  739,  740,  741,  742,  743,  744,  745,  746,  747,  748,  749,  772,  773
  774,  775,  776,  777,  778,  779,  780,  781,  782,  783,  784,  785,  786,  787,  788,  789
  812,  813,  814,  815,  816,  817,  818,  819,  820,  821,  822,  823,  824,  825,  826,  827
  828,  829,  852,  853,  854,  855,  856,  857,  858,  859,  860,  861,  862,  863,  864,  865
** ... 16 like lines cut
*Elset, elset=_Cavity_surf_S3, internal, instance=INFLATOR_FACE-2, generate
   1,  144,    1
*Elset, elset=_Cavity_surf_S3, internal, instance=INFLATOR_EDGES-1
  2, 10, 11, 20, 21, 22, 23, 24, 29, 30, 39, 40, 41, 42, 43, 49
 50,
*Elset, elset=_Cavity_surf_S6, internal, instance=INFLATOR_EDGES-1
  1,  3,  4,  5,  7, 13, 26, 32
*Elset, elset=_Cavity_surf_S5, internal, instance=INFLATOR_EDGES-1
  6, 12, 25, 31, 44, 45, 46, 47, 48
*Elset, elset=_Cavity_surf_S4, internal, instance=INFLATOR_EDGES-1
  8,  9, 14, 15, 16, 17, 18, 19, 27, 28, 33, 34, 35, 36, 37, 38
*Surface, type=ELEMENT, name=Cavity_surf
_Cavity_surf_S2, S2
_Cavity_surf_S3, S3
_Cavity_surf_S6, S6
_Cavity_surf_S4, S4
_Cavity_surf_S5, S5
*Elset, elset=__PickedSurf32_S2, internal, instance=Part-1-1
  172,  173,  174,  175,  176,  177,  178,  179,  180,  181,  182,  183,  184,  185,  186,  187
  188,  189,  212,  213,  214,  215,  216,  217,  218,  219,  220,  221,  222,  223,  224,  225
  226,  227,  228,  229,  252,  253,  254,  255,  256,  257,  258,  259,  260,  261,  262,  263
  264,  265,  266,  267,  268,  269,  292,  293,  294,  295,  296,  297,  298,  299,  300,  301
  302,  303,  304,  305,  306,  307,  308,  309,  332,  333,  334,  335,  336,  337,  338,  339
  340,  341,  342,  343,  344,  345,  346,  347,  348,  349,  372,  373,  374,  375,  376,  377
  378,  379,  380,  381,  382,  383,  384,  385,  386,  387,  388,  389,  412,  413,  414,  415
  416,  417,  418,  419,  420,  421,  422,  423,  424,  425,  426,  427,  428,  429,  452,  453
  454,  455,  456,  457,  458,  459,  460,  461,  462,  463,  464,  465,  466,  467,  468,  469
  492,  493,  494,  495,  496,  497,  498,  499,  500,  501,  502,  503,  504,  505,  506,  507
  508,  509,  532,  533,  534,  535,  536,  537,  538,  539,  540,  541,  542,  543,  544,  545
  546,  547,  548,  549,  572,  573,  574,  575,  576,  577,  578,  579,  580,  581,  582,  583
  584,  585,  586,  587,  588,  589,  612,  613,  614,  615,  616,  617,  618,  619,  620,  621
  622,  623,  624,  625,  626,  627,  628,  629,  652,  653,  654,  655,  656,  657,  658,  659
  660,  661,  662,  663,  664,  665,  666,  667,  668,  669,  692,  693,  694,  695,  696,  697
  698,  699,  700,  701,  702,  703,  704,  705,  706,  707,  708,  709,  732,  733,  734,  735
  736,  737,  738,  739,  740,  741,  742,  743,  744,  745,  746,  747,  748,  749,  772,  773
  774,  775,  776,  777,  778,  779,  780,  781,  782,  783,  784,  785,  786,  787,  788,  789
  812,  813,  814,  815,  816,  817,  818,  819,  820,  821,  822,  823,  824,  825,  826,  827
  828,  829,  852,  853,  854,  855,  856,  857,  858,  859,  860,  861,  862,  863,  864,  865
** ... 16 like lines cut
*Surface, type=ELEMENT, name=_PickedSurf32, internal
__PickedSurf32_S2, S2
*Elset, elset=__PickedSurf33_S2, internal, instance=INFLATOR_EDGES-1, generate
  1,  50,   1
*Surface, type=ELEMENT, name=_PickedSurf33, internal
__PickedSurf33_S2, S2
*Elset, elset=__PickedSurf34_S3, internal, instance=INFLATOR_FACE-2, generate
   1,  144,    1
*Surface, type=ELEMENT, name=_PickedSurf34, internal
__PickedSurf34_S3, S3
*Elset, elset=__PickedSurf35_S1, internal, instance=INFLATOR_EDGES-1, generate
  1,  50,   1
*Surface, type=ELEMENT, name=_PickedSurf35, internal
__PickedSurf35_S1, S1
** Constraint: RIGID_INFLATOR
*Rigid Body, ref node=_PickedSet47, elset=_PickedSet48
** Constraint: TIE_1
*Tie, name=TIE_1, adjust=yes
_PickedSurf33, _PickedSurf32
** Constraint: TIE_2
*Tie, name=TIE_2, adjust=yes
_PickedSurf35, _PickedSurf34
*End Assembly
** 
** MATERIALS
** 
*Material, name=SAMPLE_MAT
*Density
1.,
*Elastic
 1.5e+11, 0.3
*Material, name=SAMPLE_MAT_2
*Density
1.,
*Elastic
 1e+12, 0.3
*Material, name=UMAT
*Density, dependencies=1
1., , 0.5
2., ,  1.
*Depvar
     10,
*User Defined Field
*User Material, constants=133
4.,         4.,        88.,        17.,         4.,         4.,         8.,         5.
3.4670556, 0.2727509, 3.6283383, 0.41420662, 1.5396045, 0.24857783, 1.4401962, 0.26130614
0.0011446265, 0.00103455, -0.444465, 0.17125253, 0.22849937, -0.15074943, -0.75321925, 0.28170592
0.33709332, -0.24906579, -0.22852187, 0.08772315, 0.047117546, -0.07861809, -0.5240732, 0.18569376
0.17160481, -0.18317977, 0.17582853, 0.62426394, 3.0778491, -2.6283927, -0.37363487, 0.0069426526
-1.4643925, 0.72223616, -1.5095816, -0.94679666, -2.6275759, 1.7887226, 0.80280155, 1.1281477
0.99778295, -1.4651227, -0.7294068, 0.14899524, -2.7685044, 2.4340024, 1.4871794, 0.8310743
1.4602689, -1.5556964, 0.77868867, 1.0033166, 1.0211803, -2.1133752, -1.4030876, -0.87751704
-2.1002965, 1.7576603, -4.9775147, -0.4135291, 0.041192092, -0.39278308, 0.055286884, -0.4055981
0.35497543, 0.561375, 0.13314128, 0.21568288, -0.8007255, -0.72594446, -1.15632, -0.33372048
-0.7756434, 7.4743543, 0.22543022, -0.19831285, -0.13914533, -0.25294495, -0.34468797, 0.8259606
0.17157486, 0.033157244, -0.049728207, 4.226932, -0.08925686, 0.8866373, -0.20324033, 0.6347435
4.378571, -0.24469428, 0.38325015, 0.49957907, 0.6166368, -1.041377, 0.061011247, -1.0033404
-0.07317659, -0.5678452, 3.1969743, -0.4206097, -2.8921587, 2.7449164, -0.5041842, 0.6507567
-0.10880788, -1.2621735, -0.29230505, 0.675771, -1.1878136, 0.6861823, 1.4625235, 0.6033707
1.2546945, 0.6349225, 0.86568415,         1.,         1.,         2.,       .01,         1.
         0.,         0.,         0.,         1.,         0.,
** 
** INTERACTION PROPERTIES
** 
*Fluid Behavior, name=FLUID_PROP
*Fluid Density
1
*Fluid Bulk Modulus
 2.2e+6,
** 
** BOUNDARY CONDITIONS
** 
** Name: BC-1 Type: Displacement/Rotation
*Boundary
Set-2, 1, 1
Set-2, 2, 2
Set-2, 3, 3
Set-2, 4, 4
Set-2, 5, 5
Set-2, 6, 6
** 
** INTERACTIONS
** 
** Interaction: CAVITY
*Fluid Cavity, name=CAVITY, behavior=FLUID_PROP, refnode=_PickedSet31, surface=Cavity_surf

** ----------------------------------------------------------------
** 
** STEP: Step-1
** 
*Step, name=Step-1, nlgeom=YES
*Static
1., 10., 0.0001, 1.
** 
** BOUNDARY CONDITIONS
** 
** Name: FILL_CAVITY Type: Fluid cavity pressure
*Boundary
_PickedSet31, 8, 8, 0.0001
** 
** OUTPUT REQUESTS
** 
*Restart, write, frequency=0
** 
** FIELD OUTPUT: F-Output-1
** 
*Output, field, variable=PRESELECT
** 
** HISTORY OUTPUT: H-Output-1
** 
*Output, history, variable=PRESELECT
*End Step
** ----------------------------------------------------------------
** 
** STEP: Step-2
** 
*Step, name=Step-2, nlgeom=YES
*Static
1., 10., 0.0001, 1.
** 
** BOUNDARY CONDITIONS
** 
** Name: FILL_CAVITY_2 Type: Fluid cavity pressure
*Boundary
_PickedSet31, 8, 8, 0.0002
** 
** OUTPUT REQUESTS
** 
*Restart, write, frequency=0
** 
** FIELD OUTPUT: F-Output-1
** 
*Output, field, variable=PRESELECT
** 
** HISTORY OUTPUT: H-Output-1
** 
*Output, history, variable=PRESELECT
*End Step
** ----------------------------------------------------------------
** 
** STEP: Step-3
** 
*Step, name=Step-3, nlgeom=YES
*Static
1., 10., 0.0001, 1.
** 
** BOUNDARY CONDITIONS
** 
** Name: FILL_CAVITY_3 Type: Fluid cavity pressure
*Boundary
_PickedSet31, 8, 8, 0.0003
** 
** OUTPUT REQUESTS
** 
*Restart, write, frequency=0
** 
** FIELD OUTPUT: F-Output-1
** 
*Output, field, variable=PRESELECT
** 
** HISTORY OUTPUT: H-Output-1
** 
*Output, history, variable=PRESELECT
*End Step
