1

   Abaqus 2020                                  Date 30-May-2021   Time 21:02:41
   For use by PURDUE UNIVERSITY under license from Dassault Systemes or its subsidiary.

                                                                                 
                                                                                 
 STEP    1     INCREMENT     1     STEP TIME    0.00    


                        S T E P       1     S T A T I C   A N A L Y S I S


                                                                                          

     AUTOMATIC TIME CONTROL WITH -
          A SUGGESTED INITIAL TIME INCREMENT OF                1.000E-03
          AND A TOTAL TIME PERIOD OF                           0.100    
          THE MINIMUM TIME INCREMENT ALLOWED IS                1.000E-06
          THE MAXIMUM TIME INCREMENT ALLOWED IS                 1.00    

     LINEAR EQUATION SOLVER TYPE         DIRECT SPARSE

 CONVERGENCE TOLERANCE PARAMETERS FOR FORCE    
     CRITERION FOR RESIDUAL FORCE     FOR A NONLINEAR PROBLEM          5.000E-03
     CRITERION FOR DISP.    CORRECTION IN A NONLINEAR PROBLEM          1.000E-02
     INITIAL VALUE OF TIME AVERAGE FORCE                               1.000E-02
     AVERAGE FORCE     IS TIME AVERAGE FORCE    
     ALTERNATE CRIT. FOR RESIDUAL FORCE     FOR A NONLINEAR PROBLEM    2.000E-02
     CRITERION FOR ZERO FORCE     RELATIVE TO TIME AVRG. FORCE         1.000E-05
     CRITERION FOR RESIDUAL FORCE     WHEN THERE IS ZERO FLUX          1.000E-05
     CRITERION FOR DISP.    CORRECTION WHEN THERE IS ZERO FLUX         1.000E-03
     CRITERION FOR RESIDUAL FORCE     FOR A LINEAR INCREMENT           1.000E-08
     FIELD CONVERSION RATIO                                             1.00    
     CRITERION FOR ZERO FORCE     REL. TO TIME AVRG. MAX. FORCE        1.000E-05
     CRITERION FOR ZERO DISP.    RELATIVE TO CHARACTERISTIC LENGTH     1.000E-08

     VOLUMETRIC STRAIN COMPATIBILITY TOLERANCE FOR HYBRID SOLIDS       1.000E-05
     AXIAL STRAIN COMPATIBILITY TOLERANCE FOR HYBRID BEAMS             1.000E-05
     TRANS. SHEAR STRAIN COMPATIBILITY TOLERANCE FOR HYBRID BEAMS      1.000E-05
     SOFT CONTACT CONSTRAINT COMPATIBILITY TOLERANCE FOR P>P0          5.000E-03
     SOFT CONTACT CONSTRAINT COMPATIBILITY TOLERANCE FOR P=0.0         0.100    
     CONTACT FORCE ERROR TOLERANCE FOR CONVERT SDI=YES                 1.00    
     DISPLACEMENT COMPATIBILITY TOLERANCE FOR DCOUP ELEMENTS           1.000E-05
     ROTATION COMPATIBILITY TOLERANCE FOR DCOUP ELEMENTS               1.000E-05

 EQUILIBRIUM WILL BE CHECKED FOR SEVERE DISCONTINUITY ITERATIONS

 TIME INCREMENTATION CONTROL PARAMETERS:
     FIRST EQUILIBRIUM ITERATION FOR CONSECUTIVE DIVERGENCE CHECK              4
     EQUILIBRIUM ITERATION AT WHICH LOG. CONVERGENCE RATE CHECK BEGINS         8
     EQUILIBRIUM ITERATION AFTER WHICH ALTERNATE RESIDUAL IS USED              9
     MAXIMUM EQUILIBRIUM ITERATIONS ALLOWED                                   16
     EQUILIBRIUM ITERATION COUNT FOR CUT-BACK IN NEXT INCREMENT               10
     MAXIMUM EQUILIB. ITERS IN TWO INCREMENTS FOR TIME INCREMENT INCREASE      4
     MAXIMUM ITERATIONS FOR SEVERE DISCONTINUITIES                            50
     MAXIMUM ATTEMPTS ALLOWED IN AN INCREMENT                                  5
     MAXIMUM DISCON. ITERS IN TWO INCREMENTS FOR TIME INCREMENT INCREASE      50
     MAXIMUM CONTACT AUGMENTATIONS FOR *SURFACE BEHAVIOR,AUGMENTED LAGRANGE   50
     CUT-BACK FACTOR AFTER DIVERGENCE                                 0.2500    
     CUT-BACK FACTOR FOR TOO SLOW CONVERGENCE                         0.5000    
     CUT-BACK FACTOR AFTER TOO MANY EQUILIBRIUM ITERATIONS            0.7500    
     CUT-BACK FACTOR AFTER TOO MANY SEVERE DISCONTINUITY ITERATIONS   0.2500    
     CUT-BACK FACTOR AFTER PROBLEMS IN ELEMENT ASSEMBLY               0.2500    
     INCREASE FACTOR AFTER TWO INCREMENTS THAT CONVERGE QUICKLY        1.500    
     MAX. TIME INCREMENT INCREASE FACTOR ALLOWED                       1.500    
     MAX. TIME INCREMENT INCREASE FACTOR ALLOWED (DYNAMICS)            1.250    
     MAX. TIME INCREMENT INCREASE FACTOR ALLOWED (DIFFUSION)           2.000    
     MINIMUM TIME INCREMENT RATIO FOR EXTRAPOLATION TO OCCUR          0.1000    
     MAX. RATIO OF TIME INCREMENT TO STABILITY LIMIT                   1.000    
     FRACTION OF STABILITY LIMIT FOR NEW TIME INCREMENT               0.9500    
     TIME INCREMENT INCREASE FACTOR BEFORE A TIME POINT                1.000    
     GLOBAL STABILIZATION CONTROL IS NOT USED

          PRINT OF INCREMENT NUMBER, TIME, ETC., EVERY    1  INCREMENTS

     THE MAXIMUM NUMBER OF INCREMENTS IN THIS STEP IS                     100

          LARGE DISPLACEMENT THEORY WILL BE USED

     LINEAR EXTRAPOLATION WILL BE USED

     CHARACTERISTIC ELEMENT LENGTH      3.07    

     DETAILS REGARDING ACTUAL SOLUTION WAVEFRONT REQUESTED

     DETAILED OUTPUT OF DIAGNOSTICS TO DATABASE REQUESTED

     PRINT OF INCREMENT NUMBER, TIME, ETC., TO THE MESSAGE FILE EVERY     1  INCREMENTS

     COLLECTING MODEL CONSTRAINT INFORMATION FOR OVERCONSTRAINT CHECKS

     COLLECTING STEP CONSTRAINT INFORMATION FOR OVERCONSTRAINT CHECKS


  INCREMENT     1 STARTS. ATTEMPT NUMBER  1, TIME INCREMENT  1.000E-03
 ***************************************************
 deformation gradient
   1.00000000000000       0.000000000000000E+000  0.000000000000000E+000
  0.000000000000000E+000   1.00000000000000       0.000000000000000E+000
  0.000000000000000E+000  0.000000000000000E+000   1.00000000000000     
 J
   1.00000000000000     
 C
   1.00000000000000       0.000000000000000E+000  0.000000000000000E+000
  0.000000000000000E+000   1.00000000000000       0.000000000000000E+000
  0.000000000000000E+000  0.000000000000000E+000   1.00000000000000     
 Chat
   1.00000000000000       0.000000000000000E+000  0.000000000000000E+000
  0.000000000000000E+000   1.00000000000000       0.000000000000000E+000
  0.000000000000000E+000  0.000000000000000E+000   1.00000000000000     
 I1hat, I2hat, I4ahat, I4shat
   3.00000000000000        3.00000000000000        1.00000000000000     
   1.00000000000000     
 S^hat
  3.063952448142485E-003  0.000000000000000E+000  0.000000000000000E+000
  0.000000000000000E+000  3.549961814062381E-003  0.000000000000000E+000
  0.000000000000000E+000  0.000000000000000E+000  2.620871371385936E-003
 S_iso
 -1.430952146046845E-005  0.000000000000000E+000  0.000000000000000E+000
  0.000000000000000E+000  4.716998444594279E-004  0.000000000000000E+000
  0.000000000000000E+000  0.000000000000000E+000 -4.573905982170178E-004
 S
 -1.430952146046845E-005  0.000000000000000E+000  0.000000000000000E+000
  0.000000000000000E+000  4.716998444594279E-004  0.000000000000000E+000
  0.000000000000000E+000  0.000000000000000E+000 -4.573905982170178E-004
 sigma
 -1.430952146046845E-005  0.000000000000000E+000  0.000000000000000E+000
  0.000000000000000E+000  4.716998444594279E-004  0.000000000000000E+000
  0.000000000000000E+000  0.000000000000000E+000 -4.573905982170178E-004
 Psi24a
  5.115989765905884E-005
 CChat
  4.913165611957747E-003  0.000000000000000E+000  0.000000000000000E+000
  0.000000000000000E+000  7.480457292745978E-003  0.000000000000000E+000
  0.000000000000000E+000  0.000000000000000E+000  6.001448660827543E-003
  0.000000000000000E+000 -8.949645729622181E-004  0.000000000000000E+000
 -8.949645729622181E-004  0.000000000000000E+000  0.000000000000000E+000
  0.000000000000000E+000  0.000000000000000E+000  0.000000000000000E+000
  0.000000000000000E+000  0.000000000000000E+000 -8.949645729622181E-004
  0.000000000000000E+000  0.000000000000000E+000  0.000000000000000E+000
 -8.949645729622181E-004  0.000000000000000E+000  0.000000000000000E+000
  0.000000000000000E+000 -8.949645729622181E-004  0.000000000000000E+000
 -8.949645729622181E-004  0.000000000000000E+000  0.000000000000000E+000
  0.000000000000000E+000  0.000000000000000E+000  0.000000000000000E+000
  7.480457292745978E-003  0.000000000000000E+000  0.000000000000000E+000
  0.000000000000000E+000  6.592019440194889E-003  0.000000000000000E+000
  0.000000000000000E+000  0.000000000000000E+000  6.668901999676602E-003
  0.000000000000000E+000  0.000000000000000E+000  0.000000000000000E+000
  0.000000000000000E+000  0.000000000000000E+000 -8.949645729622181E-004
  0.000000000000000E+000 -8.949645729622181E-004  0.000000000000000E+000
  0.000000000000000E+000  0.000000000000000E+000 -8.949645729622181E-004
  0.000000000000000E+000  0.000000000000000E+000  0.000000000000000E+000
 -8.949645729622181E-004  0.000000000000000E+000  0.000000000000000E+000
  0.000000000000000E+000  0.000000000000000E+000  0.000000000000000E+000
  0.000000000000000E+000  0.000000000000000E+000 -8.949645729622181E-004
  0.000000000000000E+000 -8.949645729622181E-004  0.000000000000000E+000
  6.001448660827543E-003  0.000000000000000E+000  0.000000000000000E+000
  0.000000000000000E+000  6.668901999676602E-003  0.000000000000000E+000
  0.000000000000000E+000  0.000000000000000E+000  3.611854108983654E-003
 dShat/dC
 -6.092625463123135E-004  0.000000000000000E+000  0.000000000000000E+000
  0.000000000000000E+000  2.833320879132020E-004  0.000000000000000E+000
  0.000000000000000E+000  0.000000000000000E+000  2.870234546245528E-004
  0.000000000000000E+000 -4.474822864811090E-004  0.000000000000000E+000
 -4.474822864811090E-004  0.000000000000000E+000  0.000000000000000E+000
  0.000000000000000E+000  0.000000000000000E+000  0.000000000000000E+000
  0.000000000000000E+000  0.000000000000000E+000 -4.474822864811090E-004
  0.000000000000000E+000  0.000000000000000E+000  0.000000000000000E+000
 -4.474822864811090E-004  0.000000000000000E+000  0.000000000000000E+000
  0.000000000000000E+000 -4.474822864811090E-004  0.000000000000000E+000
 -4.474822864811090E-004  0.000000000000000E+000  0.000000000000000E+000
  0.000000000000000E+000  0.000000000000000E+000  0.000000000000000E+000
  6.743832940818023E-004  0.000000000000000E+000  0.000000000000000E+000
  0.000000000000000E+000 -1.608868383623429E-004  0.000000000000000E+000
  0.000000000000000E+000  0.000000000000000E+000  6.207501240490815E-004
  0.000000000000000E+000  0.000000000000000E+000  0.000000000000000E+000
  0.000000000000000E+000  0.000000000000000E+000 -4.474822864811090E-004
  0.000000000000000E+000 -4.474822864811090E-004  0.000000000000000E+000
  0.000000000000000E+000  0.000000000000000E+000 -4.474822864811090E-004
  0.000000000000000E+000  0.000000000000000E+000  0.000000000000000E+000
 -4.474822864811090E-004  0.000000000000000E+000  0.000000000000000E+000
  0.000000000000000E+000  0.000000000000000E+000  0.000000000000000E+000
  0.000000000000000E+000  0.000000000000000E+000 -4.474822864811090E-004
  0.000000000000000E+000 -4.474822864811090E-004  0.000000000000000E+000
 -6.512102187741526E-005  0.000000000000000E+000  0.000000000000000E+000
  0.000000000000000E+000 -1.224455586214868E-004  0.000000000000000E+000
  0.000000000000000E+000  0.000000000000000E+000 -9.077738212973922E-004
 CCvol
  0.200000000000000       0.000000000000000E+000  0.000000000000000E+000
  0.000000000000000E+000  0.200000000000000       0.000000000000000E+000
  0.000000000000000E+000  0.000000000000000E+000  0.200000000000000     
  0.000000000000000E+000  0.000000000000000E+000  0.000000000000000E+000
  0.000000000000000E+000  0.000000000000000E+000  0.000000000000000E+000
  0.000000000000000E+000  0.000000000000000E+000  0.000000000000000E+000
  0.000000000000000E+000  0.000000000000000E+000  0.000000000000000E+000
  0.000000000000000E+000  0.000000000000000E+000  0.000000000000000E+000
  0.000000000000000E+000  0.000000000000000E+000  0.000000000000000E+000
  0.000000000000000E+000  0.000000000000000E+000  0.000000000000000E+000
  0.000000000000000E+000  0.000000000000000E+000  0.000000000000000E+000
  0.000000000000000E+000  0.000000000000000E+000  0.000000000000000E+000
  0.200000000000000       0.000000000000000E+000  0.000000000000000E+000
  0.000000000000000E+000  0.200000000000000       0.000000000000000E+000
  0.000000000000000E+000  0.000000000000000E+000  0.200000000000000     
  0.000000000000000E+000  0.000000000000000E+000  0.000000000000000E+000
  0.000000000000000E+000  0.000000000000000E+000  0.000000000000000E+000
  0.000000000000000E+000  0.000000000000000E+000  0.000000000000000E+000
  0.000000000000000E+000  0.000000000000000E+000  0.000000000000000E+000
  0.000000000000000E+000  0.000000000000000E+000  0.000000000000000E+000
  0.000000000000000E+000  0.000000000000000E+000  0.000000000000000E+000
  0.000000000000000E+000  0.000000000000000E+000  0.000000000000000E+000
  0.000000000000000E+000  0.000000000000000E+000  0.000000000000000E+000
  0.000000000000000E+000  0.000000000000000E+000  0.000000000000000E+000
  0.200000000000000       0.000000000000000E+000  0.000000000000000E+000
  0.000000000000000E+000  0.200000000000000       0.000000000000000E+000
  0.000000000000000E+000  0.000000000000000E+000  0.200000000000000     
 CCiso
  2.930841504825026E-003  0.000000000000000E+000  0.000000000000000E+000
  0.000000000000000E+000 -1.764499419532586E-003  0.000000000000000E+000
  0.000000000000000E+000  0.000000000000000E+000 -1.137723039199551E-003
  0.000000000000000E+000  2.183297396640736E-003  0.000000000000000E+000
  2.183297396640736E-003  0.000000000000000E+000  0.000000000000000E+000
  0.000000000000000E+000  0.000000000000000E+000  0.000000000000000E+000
  0.000000000000000E+000  0.000000000000000E+000  2.183297396640736E-003
  0.000000000000000E+000  0.000000000000000E+000  0.000000000000000E+000
  2.183297396640736E-003  0.000000000000000E+000  0.000000000000000E+000
  0.000000000000000E+000  2.183297396640736E-003  0.000000000000000E+000
  2.183297396640736E-003  0.000000000000000E+000  0.000000000000000E+000
  0.000000000000000E+000  0.000000000000000E+000  0.000000000000000E+000
 -1.764499419532586E-003  0.000000000000000E+000  0.000000000000000E+000
  0.000000000000000E+000  2.397478001182296E-003  0.000000000000000E+000
  0.000000000000000E+000  0.000000000000000E+000 -1.576378366290431E-003
  0.000000000000000E+000  0.000000000000000E+000  0.000000000000000E+000
  0.000000000000000E+000  0.000000000000000E+000  2.183297396640736E-003
  0.000000000000000E+000  2.183297396640736E-003  0.000000000000000E+000
  0.000000000000000E+000  0.000000000000000E+000  2.183297396640736E-003
  0.000000000000000E+000  0.000000000000000E+000  0.000000000000000E+000
  2.183297396640736E-003  0.000000000000000E+000  0.000000000000000E+000
  0.000000000000000E+000  0.000000000000000E+000  0.000000000000000E+000
  0.000000000000000E+000  0.000000000000000E+000  2.183297396640736E-003
  0.000000000000000E+000  2.183297396640736E-003  0.000000000000000E+000
 -1.137723039199552E-003  0.000000000000000E+000  0.000000000000000E+000
  0.000000000000000E+000 -1.576378366290431E-003  0.000000000000000E+000
  0.000000000000000E+000  0.000000000000000E+000  3.628882694473997E-003
 CC_ref
  0.202930841504825       0.000000000000000E+000  0.000000000000000E+000
  0.000000000000000E+000  0.198235500580467       0.000000000000000E+000
  0.000000000000000E+000  0.000000000000000E+000  0.198862276960800     
  0.000000000000000E+000  2.183297396640736E-003  0.000000000000000E+000
  2.183297396640736E-003  0.000000000000000E+000  0.000000000000000E+000
  0.000000000000000E+000  0.000000000000000E+000  0.000000000000000E+000
  0.000000000000000E+000  0.000000000000000E+000  2.183297396640736E-003
  0.000000000000000E+000  0.000000000000000E+000  0.000000000000000E+000
  2.183297396640736E-003  0.000000000000000E+000  0.000000000000000E+000
  0.000000000000000E+000  2.183297396640736E-003  0.000000000000000E+000
  2.183297396640736E-003  0.000000000000000E+000  0.000000000000000E+000
  0.000000000000000E+000  0.000000000000000E+000  0.000000000000000E+000
  0.198235500580467       0.000000000000000E+000  0.000000000000000E+000
  0.000000000000000E+000  0.202397478001182       0.000000000000000E+000
  0.000000000000000E+000  0.000000000000000E+000  0.198423621633710     
  0.000000000000000E+000  0.000000000000000E+000  0.000000000000000E+000
  0.000000000000000E+000  0.000000000000000E+000  2.183297396640736E-003
  0.000000000000000E+000  2.183297396640736E-003  0.000000000000000E+000
  0.000000000000000E+000  0.000000000000000E+000  2.183297396640736E-003
  0.000000000000000E+000  0.000000000000000E+000  0.000000000000000E+000
  2.183297396640736E-003  0.000000000000000E+000  0.000000000000000E+000
  0.000000000000000E+000  0.000000000000000E+000  0.000000000000000E+000
  0.000000000000000E+000  0.000000000000000E+000  2.183297396640736E-003
  0.000000000000000E+000  2.183297396640736E-003  0.000000000000000E+000
  0.198862276960800       0.000000000000000E+000  0.000000000000000E+000
  0.000000000000000E+000  0.198423621633710       0.000000000000000E+000
  0.000000000000000E+000  0.000000000000000E+000  0.203628882694474     
 DDSDDE
  0.202902222461904       0.198235500580467       0.198862276960800     
  0.000000000000000E+000  0.000000000000000E+000  0.000000000000000E+000
  0.198235500580467       0.203340877690101       0.198423621633710     
  0.000000000000000E+000  0.000000000000000E+000  0.000000000000000E+000
  0.198862276960800       0.198423621633710       0.202714101498040     
  0.000000000000000E+000  0.000000000000000E+000  0.000000000000000E+000
  0.000000000000000E+000  0.000000000000000E+000  0.000000000000000E+000
  2.411992558140216E-003  0.000000000000000E+000  0.000000000000000E+000
  0.000000000000000E+000  0.000000000000000E+000  0.000000000000000E+000
  0.000000000000000E+000  1.947447336801993E-003  0.000000000000000E+000
  0.000000000000000E+000  0.000000000000000E+000  0.000000000000000E+000
  0.000000000000000E+000  0.000000000000000E+000  2.190452019761941E-003

  NUMBER OF EQUATIONS =      3888     NUMBER OF RHS =    1
  NUMBER OF FLOATING PT. OPERATIONS =  1.46E+08

     CHECK POINT   START OF SOLVER    

     CHECK POINT  END OF SOLVER       

       ELAPSED USER TIME (SEC)      =  9.00000E-02
       ELAPSED SYSTEM TIME (SEC)    =  3.00000E-02
       ELAPSED TOTAL CPU TIME (SEC) =  0.12000    
       ELAPSED WALLCLOCK TIME (SEC) =          1
 ***************************************************
 deformation gradient
   1.06989235286233       0.319014315178407      -4.787288042331609E-002
 -9.582646111694192E-002  0.891290008649984      -1.771437376271345E-002
  1.664928022276698E-002  8.173875529481345E-003   1.03199142637052     
 J
   1.01644760673996     
 C
   1.24873159268208       0.182658311880871      -2.898388125713181E-002
  0.182658311880871       0.803894389207291      -1.259122985915990E-002
 -2.898388125713181E-002 -1.259122985915990E-002   1.06535031487537     
 Chat
   1.23522413154982       0.180682506941945      -2.867036420363776E-002
  0.180682506941945       0.795198707701121      -1.245503121653198E-002
 -2.867036420363776E-002 -1.245503121653198E-002   1.05382647896480     
 I1hat, I2hat, I4ahat, I4shat
   3.08424931821574        3.08833869872619        1.23522413154982     
  0.795198707701121     
 S^hat
  2.978719613356736E-003 -1.644550537646631E-004  2.609542211010324E-005
 -1.644550537646631E-004  3.873405436012284E-003  1.133642023803365E-005
  2.609542211010324E-005  1.133642023803365E-005  2.693204436082408E-003
 S_iso
  3.119411244967811E-004  4.349276388798557E-004 -3.879953625177080E-005
  4.349276388798557E-004 -2.590637661066459E-004 -2.087371598405654E-005
 -3.879953625177080E-005 -2.087371598405654E-005 -3.218961679064504E-004
 S
  3.083082898004663E-003 -1.936578503739703E-004  2.916287828712473E-005
 -1.936578503739703E-004  4.043575335801455E-003  1.287731431141170E-005
  2.916287828712473E-005  1.287731431141170E-005  2.818874371418246E-003
 sigma
  3.549352445741769E-003  5.205946709267727E-004 -6.781810379294690E-005
  5.205946709267729E-004  3.361092430307612E-003 -5.544776961185960E-005
 -6.781810379294689E-005 -5.544776961185959E-005  2.958118888319281E-003
 Psi24a
  5.332834234681677E-005
 CChat
  4.583475187534619E-003 -2.531988221588181E-004  4.017711825062231E-005
 -2.531988221588181E-004  7.739872806867498E-003  1.745381601878307E-005
  4.017711825062231E-005  1.745381601878307E-005  5.934501786549169E-003
 -2.531988221588181E-004 -8.766138162253716E-004 -2.219874905928134E-006
 -8.766138162253716E-004 -3.292280058818693E-004 -9.643620518299099E-007
 -2.219874905928134E-006 -9.643620518299099E-007 -2.295091184566751E-004
  4.017711825062231E-005 -2.219874905928134E-006 -8.902513671839872E-004
 -2.219874905928134E-006  5.224128773962298E-005  1.530231770528546E-007
 -8.902513671839872E-004  1.530231770528546E-007  3.641808012063371E-005
 -2.531988221588181E-004 -8.766138162253716E-004 -2.219874905928134E-006
 -8.766138162253716E-004 -3.292280058818693E-004 -9.643620518299099E-007
 -2.219874905928134E-006 -9.643620518299099E-007 -2.295091184566751E-004
  7.739872806867498E-003 -3.292280058818693E-004  5.224128773962298E-005
 -3.292280058818693E-004  7.747900704859759E-003  2.269475424055742E-005
  5.224128773962298E-005  2.269475424055742E-005  7.181993065824928E-003
  1.745381601878307E-005 -9.643620518299099E-007  1.530231770528546E-007
 -9.643620518299099E-007  2.269475424055742E-005 -8.905371362019945E-004
  1.530231770528546E-007 -8.905371362019945E-004  1.582080790906393E-005
  4.017711825062231E-005 -2.219874905928134E-006 -8.902513671839872E-004
 -2.219874905928134E-006  5.224128773962298E-005  1.530231770528546E-007
 -8.902513671839872E-004  1.530231770528546E-007  3.641808012063371E-005
  1.745381601878307E-005 -9.643620518299099E-007  1.530231770528546E-007
 -9.643620518299099E-007  2.269475424055742E-005 -8.905371362019945E-004
  1.530231770528546E-007 -8.905371362019945E-004  1.582080790906393E-005
  5.934501786549169E-003 -2.295091184566751E-004  3.641808012063371E-005
 -2.295091184566751E-004  7.181993065824928E-003  1.582080790906393E-005
  3.641808012063371E-005  1.582080790906393E-005  3.765453542350959E-003
 dShat/dC
 -2.208466969429060E-004  3.196639249904214E-005 -5.072367716917101E-006
  3.196639249904214E-005  6.417240651993600E-004 -2.203547112523795E-006
 -5.072367716917101E-006 -2.203547112523795E-006  6.105324040185407E-004
  4.476369809702060E-004 -4.793818258149138E-004  4.635074377272543E-006
 -4.793818258149138E-004  5.754491830564973E-004  2.013577352901299E-006
  4.635074377272543E-006  2.013577352901299E-006  4.259314918813104E-004
 -4.192765959159423E-005  2.800713097289136E-006 -4.506156964368527E-004
  2.800713097289136E-006 -5.380368513700219E-005 -1.930622374333910E-007
 -4.506156964368527E-004 -1.930622374333910E-007 -4.018627771538119E-005
  4.476369809702060E-004 -4.793818258149138E-004  4.635074377272543E-006
 -4.793818258149138E-004  5.754491830564973E-004  2.013577352901299E-006
  4.635074377272543E-006  2.013577352901299E-006  4.259314918813104E-004
 -2.784306286283153E-005  8.193406962484665E-005 -1.300114580314820E-005
  8.193406962484665E-005 -1.161707523655107E-003 -5.647981158479618E-006
 -1.300114580314820E-005 -5.647981158479618E-006 -7.929604567883232E-005
 -2.208482488205539E-005  1.460654393375653E-006 -2.317739229021165E-007
  1.460654393375653E-006 -2.836186151810070E-005 -4.502719721355119E-004
 -2.317739229021165E-007 -4.502719721355119E-004 -2.110186361543374E-005
 -4.192765959159423E-005  2.800713097289136E-006 -4.506156964368527E-004
  2.800713097289136E-006 -5.380368513700219E-005 -1.930622374333910E-007
 -4.506156964368527E-004 -1.930622374333910E-007 -4.018627771538119E-005
 -2.208482488205539E-005  1.460654393375653E-006 -2.317739229021165E-007
  1.460654393375653E-006 -2.836186151810070E-005 -4.502719721355119E-004
 -2.317739229021165E-007 -4.502719721355119E-004 -2.110186361543374E-005
  1.235697034556432E-004  6.527572879230760E-005 -1.035783125775792E-005
  6.527572879230760E-005 -7.650587688299345E-005 -4.499667696393509E-006
 -1.035783125775792E-005 -4.499667696393509E-006 -8.045301726738101E-004
 CCvol
  0.139635894027460      -3.167398276181940E-002  3.424578491482411E-003
 -3.167398276181940E-002  0.223702541870714       1.782188584311445E-003
  3.424578491482411E-003  1.782188584311445E-003  0.163464502881556     
 -3.167398276181941E-002  3.736909304771429E-003 -8.175551826740630E-004
  3.736909304771429E-003 -4.917890453928436E-002 -4.795725392707235E-004
 -8.175551826740630E-004 -4.795725392707235E-004 -3.708108848444022E-002
  3.424578491482412E-003 -8.175551826740631E-004 -2.517649063347207E-003
 -8.175551826740631E-004  5.504804323364362E-003  6.328451909849938E-004
 -2.517649063347207E-003  6.328451909849938E-004  3.881365918726560E-003
 -3.167398276181941E-002  3.736909304771429E-003 -8.175551826740630E-004
  3.736909304771429E-003 -4.917890453928436E-002 -4.795725392707235E-004
 -8.175551826740630E-004 -4.795725392707235E-004 -3.708108848444022E-002
  0.223702541870714      -4.917890453928436E-002  5.504804323364361E-003
 -4.917890453928436E-002  0.336627366169259       2.640593404365203E-003
  5.504804323364361E-003  2.640593404365203E-003  0.253808292218039     
  1.782188584311445E-003 -4.795725392707235E-004  6.328451909849938E-004
 -4.795725392707235E-004  2.640593404365203E-003 -4.020546666307266E-003
  6.328451909849938E-004 -4.020546666307266E-003  1.927537442563426E-003
  3.424578491482412E-003 -8.175551826740631E-004 -2.517649063347207E-003
 -8.175551826740631E-004  5.504804323364362E-003  6.328451909849938E-004
 -2.517649063347207E-003  6.328451909849938E-004  3.881365918726560E-003
  1.782188584311445E-003 -4.795725392707235E-004  6.328451909849938E-004
 -4.795725392707235E-004  2.640593404365203E-003 -4.020546666307266E-003
  6.328451909849938E-004 -4.020546666307266E-003  1.927537442563426E-003
  0.163464502881556      -3.708108848444022E-002  3.881365918726560E-003
 -3.708108848444022E-002  0.253808292218039       1.927537442563426E-003
  3.881365918726560E-003  1.927537442563426E-003  0.179370903941304     
 CCiso
  1.607571824279504E-003 -6.799181420871077E-004  6.577078446640910E-005
 -6.799181420871077E-004 -1.636104568512191E-003 -4.254025498315926E-005
  6.577078446640910E-005 -4.254025498315926E-005 -9.996017544831887E-004
 -6.799181420871075E-004  2.715497483200051E-003  3.311115988049383E-006
  2.715497483200051E-003 -1.385422043110673E-003  7.011861801449750E-005
  3.311115988049383E-006  7.011861801449750E-005  9.654497150026199E-005
  6.577078446640903E-005  3.311115988049388E-006  1.561718201232014E-003
  3.311115988049388E-006 -4.204849404483792E-005 -5.546730304018942E-004
  1.561718201232014E-003 -5.546730304018942E-004  9.820548677488507E-005
 -6.799181420871075E-004  2.715497483200051E-003  3.311115988049383E-006
  2.715497483200051E-003 -1.385422043110673E-003  7.011861801449750E-005
  3.311115988049383E-006  7.011861801449750E-005  9.654497150026199E-005
 -1.636104568512193E-003 -1.385422043110673E-003 -4.204849404483787E-005
 -1.385422043110673E-003  5.962693594254265E-003  6.979126130126393E-005
 -4.204849404483787E-005  6.979126130126393E-005 -1.620833133583288E-003
 -4.254025498315926E-005  7.011861801449750E-005 -5.546730304018942E-004
  7.011861801449750E-005  6.979126130126389E-005  2.914354910476555E-003
 -5.546730304018942E-004  2.914354910476555E-003  5.104984425487397E-005
  6.577078446640903E-005  3.311115988049388E-006  1.561718201232014E-003
  3.311115988049388E-006 -4.204849404483792E-005 -5.546730304018942E-004
  1.561718201232014E-003 -5.546730304018942E-004  9.820548677488507E-005
 -4.254025498315926E-005  7.011861801449750E-005 -5.546730304018942E-004
  7.011861801449750E-005  6.979126130126389E-005  2.914354910476555E-003
 -5.546730304018942E-004  2.914354910476555E-003  5.104984425487397E-005
 -9.996017544831892E-004  9.654497150026236E-005  9.820548677488516E-005
  9.654497150026236E-005 -1.620833133583289E-003  5.104984425487398E-005
  9.820548677488516E-005  5.104984425487398E-005  2.972462803046316E-003
 CC_ref
  0.141243465851739      -3.235390090390651E-002  3.490349275948820E-003
 -3.235390090390651E-002  0.222066437302202       1.739648329328285E-003
  3.490349275948820E-003  1.739648329328285E-003  0.162464901127073     
 -3.235390090390652E-002  6.452406787971481E-003 -8.142440666860137E-004
  6.452406787971481E-003 -5.056432658239503E-002 -4.094539212562260E-004
 -8.142440666860137E-004 -4.094539212562260E-004 -3.698454351293996E-002
  3.490349275948821E-003 -8.142440666860137E-004 -9.559308621151931E-004
 -8.142440666860137E-004  5.462755829319523E-003  7.817216058309960E-005
 -9.559308621151931E-004  7.817216058309960E-005  3.979571405501445E-003
 -3.235390090390652E-002  6.452406787971481E-003 -8.142440666860137E-004
  6.452406787971481E-003 -5.056432658239503E-002 -4.094539212562260E-004
 -8.142440666860137E-004 -4.094539212562260E-004 -3.698454351293996E-002
  0.222066437302202      -5.056432658239503E-002  5.462755829319522E-003
 -5.056432658239503E-002  0.342590059763514       2.710384665666467E-003
  5.462755829319522E-003  2.710384665666467E-003  0.252187459084456     
  1.739648329328286E-003 -4.094539212562260E-004  7.817216058309960E-005
 -4.094539212562260E-004  2.710384665666467E-003 -1.106191755830711E-003
  7.817216058309960E-005 -1.106191755830711E-003  1.978587286818300E-003
  3.490349275948821E-003 -8.142440666860137E-004 -9.559308621151931E-004
 -8.142440666860137E-004  5.462755829319523E-003  7.817216058309960E-005
 -9.559308621151931E-004  7.817216058309960E-005  3.979571405501445E-003
  1.739648329328286E-003 -4.094539212562260E-004  7.817216058309960E-005
 -4.094539212562260E-004  2.710384665666467E-003 -1.106191755830711E-003
  7.817216058309960E-005 -1.106191755830711E-003  1.978587286818300E-003
  0.162464901127073      -3.698454351293996E-002  3.979571405501445E-003
 -3.698454351293996E-002  0.252187459084456       1.978587286818300E-003
  3.979571405501445E-003  1.978587286818300E-003  0.182343366744350     
 DDSDDE
  0.209576148624090       0.204820587930545       0.205340391475990     
  8.648552245086525E-005 -1.846118906168192E-005  8.462747989790069E-006
  0.204820587930545       0.209738065595764       0.205178474558217     
  3.353219239306108E-005  1.561445989314979E-005 -1.011867018281945E-005
  0.205340391475990       0.205178474558218       0.209218262120051     
 -1.200178382580926E-004  2.846744583905863E-006  1.655934741651429E-006
  8.648552245086151E-005  3.353219239306173E-005 -1.200178382580836E-004
  2.558717545640429E-003 -3.101762132819971E-005 -2.905736571220542E-005
 -1.846118906168158E-005  1.561445989314861E-005  2.846744583901147E-006
 -3.101762132820021E-005  1.984410942855020E-003  2.344378793988662E-005
  8.462747989791960E-006 -1.011867018281915E-005  1.655934741649708E-006
 -2.905736571220536E-005  2.344378793988673E-005  2.130240696363882E-003

               CONVERGENCE CHECKS FOR EQUILIBRIUM ITERATION     1


 AVERAGE FORCE                      2.730E-03   TIME AVG. FORCE       2.730E-03
 LARGEST RESIDUAL FORCE            -3.276E-02   AT NODE         91   DOF  2
   INSTANCE: PART-1-1                                                                        
 LARGEST INCREMENT OF DISP.          2.61       AT NODE        648   DOF  2
   INSTANCE: PART-1-1                                                                        
 LARGEST CORRECTION TO DISP.         2.61       AT NODE        648   DOF  2
   INSTANCE: PART-1-1                                                                        
          FORCE     EQUILIBRIUM NOT ACHIEVED WITHIN TOLERANCE.

  NUMBER OF EQUATIONS =      3888     NUMBER OF RHS =    1
  NUMBER OF FLOATING PT. OPERATIONS =  1.46E+08

     CHECK POINT   START OF SOLVER    

     CHECK POINT  END OF SOLVER       

       ELAPSED USER TIME (SEC)      =  5.00000E-02
       ELAPSED SYSTEM TIME (SEC)    =  1.00000E-02
       ELAPSED TOTAL CPU TIME (SEC) =  6.00000E-02
       ELAPSED WALLCLOCK TIME (SEC) =          0
 

 ***WARNING: THE SYSTEM MATRIX HAS 10 NEGATIVE EIGENVALUES.

     NEGATIVE EIGENVALUES MEAN THAT THE SYSTEM MATRIX IS NOT 
     POSITIVE DEFINITE:
     FOR EXAMPLE, A BIFURCATION (BUCKLING) LOAD MAY HAVE BEEN EXCEEDED.
 ***************************************************
 deformation gradient
   1.05227652854538       0.338152224983402      -5.290579354820323E-002
 -7.077362064046851E-002  0.885420624906717      -4.738160016606530E-003
  1.068532516918954E-002  1.136731508239893E-002   1.04827591286133     
 J
   1.00235663344028     
 C
   1.22443184277971       0.225184210633898      -4.037206926478162E-002
  0.225184210633898       0.789001038549105       4.341717057133692E-003
 -4.037206926478162E-002  4.341717057133692E-003   1.09912578151140     
 Chat
   1.22251192133790       0.224831119527273      -4.030876545421112E-002
  0.224831119527273       0.787763876986821       4.334909201129757E-003
 -4.030876545421112E-002  4.334909201129757E-003   1.09740234123368     
 I1hat, I2hat, I4ahat, I4shat
   3.10767813955840        3.11693947810459        1.22251192133790     
  0.787763876986821     
 S^hat
  3.038438382042312E-003 -2.064642355033134E-004  3.701586533521018E-005
 -2.064642355033134E-004  3.936266370521232E-003 -3.980782180284290E-006
  3.701586533521018E-005 -3.980782180284290E-006  2.698777347129669E-003
 S_iso
  2.483402494124158E-004  5.893857523702560E-004 -6.849292793552686E-005
  5.893857523702560E-004 -3.872575700384910E-004  4.230020081818666E-005
 -6.849292793552686E-005  4.230020081818666E-005 -2.455295122903453E-004
 S
  6.561102692455860E-004  4.729215242353358E-004 -5.305504585135575E-005
  4.729215242353358E-004  2.447983164447636E-004  3.552562612092195E-005
 -5.305504585135575E-005  3.552562612092195E-005  1.848944781022519E-004
 sigma
  6.545194735065143E-004  6.454123802940079E-004 -9.586597261791345E-005
  6.454123802940079E-004  5.491675886165961E-004 -1.923075526063629E-005
 -9.586597261791345E-005 -1.923075526063629E-005  2.102927142015935E-004
 Psi24a
  5.448302090216820E-005
 CChat
  4.881321626091003E-003 -3.318966195797868E-004  5.950396467275665E-005
 -3.318966195797868E-004  8.153191714295398E-003 -6.399210718984817E-006
  5.950396467275665E-005 -6.399210718984817E-006  6.176589951822811E-003
 -3.318966195797868E-004 -8.928595583212229E-004 -4.046625433096899E-006
 -8.928595583212229E-004 -4.299539398846549E-004  4.351845963475129E-007
 -4.046625433096899E-006  4.351845963475129E-007 -2.955750850709664E-004
  5.950396467275665E-005 -4.046625433096899E-006 -9.147050154352745E-004
 -4.046625433096899E-006  7.708413566308932E-005 -7.802191200373207E-008
 -9.147050154352745E-004 -7.802191200373207E-008  5.299207157481083E-005
 -3.318966195797868E-004 -8.928595583212229E-004 -4.046625433096899E-006
 -8.928595583212229E-004 -4.299539398846549E-004  4.351845963475129E-007
 -4.046625433096899E-006  4.351845963475129E-007 -2.955750850709664E-004
  8.153191714295398E-003 -4.299539398846549E-004  7.708413566308932E-005
 -4.299539398846549E-004  8.190228898975463E-003 -8.289827911664580E-006
  7.708413566308932E-005 -8.289827911664580E-006  7.460897041013621E-003
 -6.399210718984817E-006  4.351845963475129E-007 -7.802191200373207E-008
  4.351845963475129E-007 -8.289827911664580E-006 -9.154221225247728E-004
 -7.802191200373207E-008 -9.154221225247728E-004 -5.698904842856589E-006
  5.950396467275665E-005 -4.046625433096899E-006 -9.147050154352745E-004
 -4.046625433096899E-006  7.708413566308932E-005 -7.802191200373207E-008
 -9.147050154352745E-004 -7.802191200373207E-008  5.299207157481083E-005
 -6.399210718984817E-006  4.351845963475129E-007 -7.802191200373207E-008
  4.351845963475129E-007 -8.289827911664580E-006 -9.154221225247728E-004
 -7.802191200373207E-008 -9.154221225247728E-004 -5.698904842856589E-006
  6.176589951822811E-003 -2.955750850709664E-004  5.299207157481083E-005
 -2.955750850709664E-004  7.460897041013621E-003 -5.698904842856589E-006
  5.299207157481083E-005 -5.698904842856589E-006  3.870929587655807E-003
 dShat/dC
 -2.993843053608336E-004  4.591574508222555E-005 -8.231987649513386E-006
  4.591574508222555E-005  5.608874798680424E-004  8.852893062676044E-007
 -8.231987649513386E-006  8.852893062676044E-007  5.621546520586840E-004
  6.174770492259330E-004 -5.077163497484711E-004  8.835552749020225E-006
 -5.077163497484711E-004  7.906443319999501E-004 -9.501982627650456E-007
  8.835552749020225E-006 -9.501982627650456E-007  5.748629414656900E-004
 -7.408256097083505E-005  6.004398502790365E-006 -4.595105822589518E-004
  6.004398502790365E-006 -9.474199632259620E-005  1.157692154525715E-007
 -4.595105822589518E-004  1.157692154525715E-007 -6.928384431920531E-005
  6.174770492259330E-004 -5.077163497484711E-004  8.835552749020225E-006
 -5.077163497484711E-004  7.906443319999501E-004 -9.501982627650456E-007
  8.835552749020225E-006 -9.501982627650456E-007  5.748629414656900E-004
 -1.700961718354395E-004  1.134850839803066E-004 -2.034613198711907E-005
  1.134850839803066E-004 -1.357832375074208E-003  2.188075813399753E-006
 -2.034613198711907E-005  2.188075813399753E-006 -1.868047332760583E-004
  4.238137731931349E-005 -3.306244723619583E-006  5.927588822170978E-007
 -3.306244723619583E-006  5.436391589215978E-005 -4.584978326860824E-004
  5.927588822170978E-007 -4.584978326860824E-004  3.919522464383769E-005
 -7.408256097083505E-005  6.004398502790365E-006 -4.595105822589518E-004
  6.004398502790365E-006 -9.474199632259620E-005  1.157692154525715E-007
 -4.595105822589518E-004  1.157692154525715E-007 -6.928384431920531E-005
  4.238137731931349E-005 -3.306244723619583E-006  5.927588822170978E-007
 -3.306244723619583E-006  5.436391589215978E-005 -4.584978326860824E-004
  5.927588822170978E-007 -4.584978326860824E-004  3.919522464383769E-005
  1.968287343119520E-004  7.588977924370891E-005 -1.360587145737826E-005
  7.588977924370891E-005  1.852302356957890E-005  1.463210711252780E-006
 -1.360587145737826E-005  1.463210711252780E-006 -7.330970964224612E-004
 CCvol
  0.149346224562517      -4.265515345059973E-002  5.654141531678936E-003
 -4.265515345059973E-002  0.232524832050247      -2.485278650611720E-003
  5.654141531678936E-003 -2.485278650611720E-003  0.158385272403515     
 -4.265515345059973E-002  1.166601707385072E-002 -1.612852127340865E-003
  1.166601707385072E-002 -6.611678033203208E-002  6.896768459362257E-004
 -1.612852127340865E-003  6.896768459362257E-004 -4.523666421421103E-002
  5.654141531678936E-003 -1.612852127340865E-003 -1.569411632345104E-004
 -1.612852127340865E-003  8.802058091059588E-003  1.194950096263686E-005
 -1.569411632345104E-004  1.194950096263686E-005  5.968261622827110E-003
 -4.265515345059973E-002  1.166601707385072E-002 -1.612852127340865E-003
  1.166601707385072E-002 -6.611678033203208E-002  6.896768459362257E-004
 -1.612852127340865E-003  6.896768459362257E-004 -4.523666421421103E-002
  0.232524832050246      -6.611678033203208E-002  8.802058091059588E-003
 -6.611678033203208E-002  0.358818333091679      -3.845928267202355E-003
  8.802058091059588E-003 -3.845928267202355E-003  0.245503341002435     
 -2.485278650611720E-003  6.896768459362257E-004  1.194950096263686E-005
  6.896768459362257E-004 -3.845928267202355E-003 -5.345286978189970E-004
  1.194950096263686E-005 -5.345286978189970E-004 -2.619040225609513E-003
  5.654141531678936E-003 -1.612852127340865E-003 -1.569411632345104E-004
 -1.612852127340865E-003  8.802058091059588E-003  1.194950096263686E-005
 -1.569411632345104E-004  1.194950096263686E-005  5.968261622827110E-003
 -2.485278650611720E-003  6.896768459362257E-004  1.194950096263686E-005
  6.896768459362257E-004 -3.845928267202355E-003 -5.345286978189970E-004
  1.194950096263686E-005 -5.345286978189970E-004 -2.619040225609513E-003
  0.158385272403515      -4.523666421421104E-002  5.968261622827110E-003
 -4.523666421421104E-002  0.245503341002435      -2.619040225609514E-003
  5.968261622827110E-003 -2.619040225609514E-003  0.166401256946909     
 CCiso
  1.903356318596765E-003 -1.002636396052345E-003  1.230767135049315E-004
 -1.002636396052345E-003 -1.602636084915132E-003 -3.867586909099624E-005
  1.230767135049315E-004 -3.867586909099624E-005 -1.001614001041134E-003
 -1.002636396052344E-003  3.255157867709843E-003 -9.371076587085654E-005
  3.255157867709843E-003 -2.013428491878864E-003  1.722399284859066E-004
 -9.371076587085654E-005  1.722399284859066E-004  1.477564432416146E-004
  1.230767135049312E-004 -9.371076587085654E-005  1.622586844308416E-003
 -9.371076587085654E-005 -1.102177690999290E-005 -7.268443830880513E-004
  1.622586844308416E-003 -7.268443830880513E-004  1.587746126494818E-004
 -1.002636396052344E-003  3.255157867709843E-003 -9.371076587085654E-005
  3.255157867709843E-003 -2.013428491878864E-003  1.722399284859066E-004
 -9.371076587085654E-005  1.722399284859066E-004  1.477564432416146E-004
 -1.602636084915132E-003 -2.013428491878863E-003 -1.102177690999300E-005
 -2.013428491878863E-003  6.937917145948059E-003 -1.330810019736729E-004
 -1.102177690999300E-005 -1.330810019736729E-004 -1.665086647131947E-003
 -3.867586909099622E-005  1.722399284859066E-004 -7.268443830880513E-004
  1.722399284859066E-004 -1.330810019736729E-004  3.010865218405402E-003
 -7.268443830880513E-004  3.010865218405402E-003 -8.611197843034524E-005
  1.230767135049312E-004 -9.371076587085654E-005  1.622586844308416E-003
 -9.371076587085654E-005 -1.102177690999290E-005 -7.268443830880513E-004
  1.622586844308416E-003 -7.268443830880513E-004  1.587746126494818E-004
 -3.867586909099622E-005  1.722399284859066E-004 -7.268443830880513E-004
  1.722399284859066E-004 -1.330810019736729E-004  3.010865218405402E-003
 -7.268443830880513E-004  3.010865218405402E-003 -8.611197843034524E-005
 -1.001614001041134E-003  1.477564432416144E-004  1.587746126494819E-004
  1.477564432416144E-004 -1.665086647131946E-003 -8.611197843034533E-005
  1.587746126494819E-004 -8.611197843034533E-005  2.709649179567572E-003
 CC_ref
  0.151249580881113      -4.365778984665208E-002  5.777218245183867E-003
 -4.365778984665208E-002  0.230922195965331      -2.523954519702716E-003
  5.777218245183867E-003 -2.523954519702716E-003  0.157383658402474     
 -4.365778984665208E-002  1.492117494156056E-002 -1.706562893211721E-003
  1.492117494156056E-002 -6.813020882391095E-002  8.619167744221322E-004
 -1.706562893211721E-003  8.619167744221322E-004 -4.508890777096942E-002
  5.777218245183867E-003 -1.706562893211721E-003  1.465645681073906E-003
 -1.706562893211721E-003  8.791036314149596E-003 -7.148948821254145E-004
  1.465645681073906E-003 -7.148948821254145E-004  6.127036235476592E-003
 -4.365778984665208E-002  1.492117494156056E-002 -1.706562893211721E-003
  1.492117494156056E-002 -6.813020882391095E-002  8.619167744221322E-004
 -1.706562893211721E-003  8.619167744221322E-004 -4.508890777096942E-002
  0.230922195965331      -6.813020882391095E-002  8.791036314149596E-003
 -6.813020882391095E-002  0.365756250237627      -3.979009269176027E-003
  8.791036314149596E-003 -3.979009269176027E-003  0.243838254355303     
 -2.523954519702716E-003  8.619167744221322E-004 -7.148948821254145E-004
  8.619167744221322E-004 -3.979009269176027E-003  2.476336520586405E-003
 -7.148948821254145E-004  2.476336520586405E-003 -2.705152204039859E-003
  5.777218245183867E-003 -1.706562893211721E-003  1.465645681073906E-003
 -1.706562893211721E-003  8.791036314149596E-003 -7.148948821254145E-004
  1.465645681073906E-003 -7.148948821254145E-004  6.127036235476592E-003
 -2.523954519702716E-003  8.619167744221322E-004 -7.148948821254145E-004
  8.619167744221322E-004 -3.979009269176027E-003  2.476336520586405E-003
 -7.148948821254145E-004  2.476336520586405E-003 -2.705152204039859E-003
  0.157383658402474      -4.508890777096942E-002  6.127036235476592E-003
 -4.508890777096942E-002  0.243838254355304      -2.705152204039859E-003
  6.127036235476592E-003 -2.705152204039859E-003  0.169110906126477     
 DDSDDE
  0.204032214055842       0.199112279438546       0.199683466592936     
  8.094106288818008E-005 -1.887562456436793E-005  1.294972803743873E-005
  0.199112279438546       0.204231852759349       0.199483827924629     
  4.441352212772472E-005  1.543600601635953E-005 -8.168580745174847E-006
  0.199683466592936       0.199483827924629       0.203660665658951     
 -1.253547398614721E-004  3.439640921241812E-006 -4.781143305175813E-006
  8.094106288817390E-005  4.441352212772450E-005 -1.253547398614646E-004
  2.729613291388274E-003 -4.396792780097332E-005 -2.101203619745986E-005
 -1.887562456436766E-005  1.543600601635890E-005  3.439640921240077E-006
 -4.396792780097317E-005  2.060340555027198E-003  2.899723338768890E-005
  1.294972803743837E-005 -8.168580745176953E-006 -4.781143305174516E-006
 -2.101203619745986E-005  2.899723338768906E-005  2.216579732229146E-003

               CONVERGENCE CHECKS FOR EQUILIBRIUM ITERATION     2


 AVERAGE FORCE                      3.843E-04   TIME AVG. FORCE       3.843E-04
 LARGEST RESIDUAL FORCE             3.308E-03   AT NODE        594   DOF  2
   INSTANCE: PART-1-1                                                                        
 LARGEST INCREMENT OF DISP.          2.61       AT NODE        630   DOF  2
   INSTANCE: PART-1-1                                                                        
 LARGEST CORRECTION TO DISP.       -0.200       AT NODE        594   DOF  2
   INSTANCE: PART-1-1                                                                        
          FORCE     EQUILIBRIUM NOT ACHIEVED WITHIN TOLERANCE.

  NUMBER OF EQUATIONS =      3888     NUMBER OF RHS =    1
  NUMBER OF FLOATING PT. OPERATIONS =  1.46E+08

     CHECK POINT   START OF SOLVER    

     CHECK POINT  END OF SOLVER       

       ELAPSED USER TIME (SEC)      =  4.00000E-02
       ELAPSED SYSTEM TIME (SEC)    =   0.0000    
       ELAPSED TOTAL CPU TIME (SEC) =  4.00000E-02
       ELAPSED WALLCLOCK TIME (SEC) =          0
 ***************************************************
 deformation gradient
   1.06206731312961       0.337440597419728      -5.000532319450750E-002
 -8.159040854710209E-002  0.884760017094620      -1.566115750249406E-002
  1.325190245679870E-002  9.099217411311753E-003   1.03597537230101     
 J
   1.00270696937172     
 C
   1.24435366675312       0.212682584001242      -3.465942551798949E-002
  0.212682584001242       0.789702554470474      -9.255177857407784E-003
 -3.465942551798949E-002 -9.255177857407784E-003   1.07350338069045     
 Chat
   1.24211310203491       0.212299630901474      -3.459701827152597E-002
  0.212299630901474       0.788280627787813      -9.238513121712404E-003
 -3.459701827152597E-002 -9.238513121712404E-003   1.07157044645807     
 I1hat, I2hat, I4ahat, I4shat
   3.10196417628080        3.10849017432847        1.24211310203491     
  0.788280627787813     
 S^hat
  3.012478191975316E-003 -1.947797768008888E-004  3.174192752144489E-005
 -1.947797768008888E-004  3.926991454068380E-003  8.476112352048031E-006
  3.174192752144489E-005  8.476112352048031E-006  2.714776572722909E-003
 S_iso
  2.918961023486747E-004  5.358632889291836E-004 -4.968136642661263E-005
  5.358632889291836E-004 -3.550047296732946E-004 -4.816872810034214E-006
 -4.968136642661263E-005 -4.816872810034214E-006 -2.928213661671849E-004
 S
  7.495765706030605E-004  4.127615908537797E-004 -3.596588657335415E-005
  4.127615908537797E-004  3.655978688087348E-004 -2.578713973185861E-006
 -3.596588657335415E-005 -2.578713973185861E-006  2.133302733746018E-004
 sigma
  7.733483022770220E-004  6.165624555525258E-004 -8.070645965235978E-005
  6.165624555525258E-004  6.160922627942037E-004 -5.092811714441071E-005
 -8.070645965235976E-005 -5.092811714441071E-005  2.347407708042353E-004
 Psi24a
  5.436808654991016E-005
 CChat
  4.793020071447564E-003 -3.100940570721289E-004  5.053390678476942E-005
 -3.100940570721289E-004  8.075011479394222E-003  1.349417332032678E-005
  5.053390678476942E-005  1.349417332032678E-005  6.157566186274566E-003
 -3.100940570721289E-004 -8.941088287694305E-004 -3.270014449315704E-006
 -8.941088287694305E-004 -4.042151554354345E-004 -8.731987005670885E-007
 -3.270014449315704E-006 -8.731987005670885E-007 -2.801779739287437E-004
  5.053390678476942E-005 -3.270014449315704E-006 -9.136419106432511E-004
 -3.270014449315704E-006  6.587217819854588E-005  1.422992177137247E-007
 -9.136419106432511E-004  1.422992177137247E-007  4.565868740389109E-005
 -3.100940570721289E-004 -8.941088287694305E-004 -3.270014449315704E-006
 -8.941088287694305E-004 -4.042151554354345E-004 -8.731987005670885E-007
 -3.270014449315704E-006 -8.731987005670885E-007 -2.801779739287437E-004
  8.075011479394222E-003 -4.042151554354345E-004  6.587217819854588E-005
 -4.042151554354345E-004  8.142672733202811E-003  1.758998356063249E-005
  6.587217819854588E-005  1.758998356063249E-005  7.471971946510003E-003
  1.349417332032678E-005 -8.731987005670885E-007  1.422992177137247E-007
 -8.731987005670885E-007  1.758998356063249E-005 -9.141368040707712E-004
  1.422992177137247E-007 -9.141368040707712E-004  1.219233343724819E-005
  5.053390678476942E-005 -3.270014449315704E-006 -9.136419106432511E-004
 -3.270014449315704E-006  6.587217819854588E-005  1.422992177137247E-007
 -9.136419106432511E-004  1.422992177137247E-007  4.565868740389109E-005
  1.349417332032678E-005 -8.731987005670885E-007  1.422992177137247E-007
 -8.731987005670885E-007  1.758998356063249E-005 -9.141368040707712E-004
  1.422992177137247E-007 -9.141368040707712E-004  1.219233343724819E-005
  6.157566186274566E-003 -2.801779739287437E-004  4.565868740389109E-005
 -2.801779739287437E-004  7.471971946510003E-003  1.219233343724819E-005
  4.565868740389109E-005  1.219233343724819E-005  3.912341492726292E-003
 dShat/dC
 -2.478141962875460E-004  3.976878411273127E-005 -6.480846644632489E-006
  3.976878411273127E-005  6.208947136680037E-004 -1.730593841825958E-006
 -6.480846644632489E-006 -1.730593841825958E-006  6.011510500869864E-004
  5.570763393329210E-004 -5.003353971004526E-004  6.913465322039725E-006
 -5.003353971004526E-004  7.184480072037451E-004  1.846116899233887E-006
  6.913465322039725E-006  1.846116899233887E-006  5.275574110656434E-004
 -5.406045750151602E-005  4.208542243208377E-006 -4.585977479768294E-004
  4.208542243208377E-006 -6.960959780279039E-005 -1.831405573908208E-007
 -4.585977479768294E-004 -1.831405573908208E-007 -5.154401880306346E-005
  5.570763393329210E-004 -5.003353971004526E-004  6.913465322039725E-006
 -5.003353971004526E-004  7.184480072037451E-004  1.846116899233887E-006
  6.913465322039725E-006  1.846116899233887E-006  5.275574110656434E-004
 -1.254176539136611E-004  1.046991840707733E-004 -1.706210966514332E-005
  1.046991840707733E-004 -1.312126295047885E-003 -4.556130322804552E-006
 -1.706210966514332E-005 -4.556130322804552E-006 -1.669677387433442E-004
 -6.193213723977943E-006  5.166732525621979E-007 -8.419870483712167E-008
  5.166732525621979E-007 -7.932743418090076E-006 -4.579343943964988E-004
 -8.419870483712167E-008 -4.579343943964988E-004 -6.036164529101815E-006
 -5.406045750151602E-005  4.208542243208377E-006 -4.585977479768294E-004
  4.208542243208377E-006 -6.960959780279039E-005 -1.831405573908208E-007
 -4.585977479768294E-004 -1.831405573908208E-007 -5.154401880306346E-005
 -6.193213723977943E-006  5.166732525621979E-007 -8.419870483712167E-008
  5.166732525621979E-007 -7.932743418090076E-006 -4.579343943964988E-004
 -8.419870483712167E-008 -4.579343943964988E-004 -6.036164529101815E-006
  1.551815760917339E-004  7.541561774702688E-005 -1.228996722261464E-005
  7.541561774702688E-005 -4.378033930686146E-005 -3.281815287099097E-006
 -1.228996722261464E-005 -3.281815287099097E-006 -7.864709070047541E-004
 CCvol
  0.142545675085023      -3.834031791480748E-002  4.271718962040338E-003
 -3.834031791480748E-002  0.225592638864643       7.070742547841147E-004
  4.271718962040338E-003  7.070742547841147E-004  0.158494908987953     
 -3.834031791480748E-002  9.732724440303044E-003 -1.153955655524271E-003
  9.732724440303044E-003 -6.036554896347737E-002 -2.062063876770165E-004
 -1.153955655524271E-003 -2.062063876770165E-004 -4.263046134411794E-002
  4.271718962040338E-003 -1.153955655524271E-003 -2.983737300214119E-004
 -1.153955655524271E-003  6.763106202189314E-003  1.357238471459563E-004
 -2.983737300214119E-004  1.357238471459563E-004  4.724120224192541E-003
 -3.834031791480748E-002  9.732724440303044E-003 -1.153955655524271E-003
  9.732724440303044E-003 -6.036554896347737E-002 -2.062063876770165E-004
 -1.153955655524271E-003 -2.062063876770165E-004 -4.263046134411794E-002
  0.225592638864643      -6.036554896347737E-002  6.763106202189314E-003
 -6.036554896347737E-002  0.353362887124685       1.097529026537481E-003
  6.763106202189314E-003  1.097529026537481E-003  0.249546008955809     
  7.070742547841147E-004 -2.062063876770165E-004  1.357238471459563E-004
 -2.062063876770165E-004  1.097529026537481E-003 -6.684578548893332E-004
  1.357238471459563E-004 -6.684578548893332E-004  7.709049584290399E-004
  4.271718962040338E-003 -1.153955655524271E-003 -2.983737300214119E-004
 -1.153955655524271E-003  6.763106202189314E-003  1.357238471459563E-004
 -2.983737300214119E-004  1.357238471459563E-004  4.724120224192541E-003
  7.070742547841147E-004 -2.062063876770165E-004  1.357238471459563E-004
 -2.062063876770165E-004  1.097529026537481E-003 -6.684578548893332E-004
  1.357238471459563E-004 -6.684578548893332E-004  7.709049584290399E-004
  0.158494908987953      -4.263046134411794E-002  4.724120224192541E-003
 -4.263046134411794E-002  0.249546008955809       7.709049584290399E-004
  4.724120224192541E-003  7.709049584290399E-004  0.174337407254438     
 CCiso
  1.747635143384018E-003 -8.690491974909589E-004  8.710014080533028E-005
 -8.690491974909589E-004 -1.631676840349364E-003 -4.811955406748244E-005
  8.710014080533028E-005 -4.811955406748244E-005 -1.020135466776720E-003
 -8.690491974909582E-004  3.056697574354539E-003 -2.483227738655749E-005
  3.056697574354539E-003 -1.808164212442633E-003  1.037888241324520E-004
 -2.483227738655749E-005  1.037888241324520E-004  1.281569256202966E-004
  8.710014080533033E-005 -2.483227738655750E-005  1.614358142698934E-003
 -2.483227738655750E-005 -3.965698045763560E-005 -6.788205545321665E-004
  1.614358142698934E-003 -6.788205545321665E-004  1.231478293221218E-004
 -8.690491974909582E-004  3.056697574354539E-003 -2.483227738655749E-005
  3.056697574354539E-003 -1.808164212442633E-003  1.037888241324520E-004
 -2.483227738655749E-005  1.037888241324520E-004  1.281569256202966E-004
 -1.631676840349365E-003 -1.808164212442635E-003 -3.965698045763560E-005
 -1.808164212442635E-003  6.726773065124534E-003  2.322023907077163E-005
 -3.965698045763560E-005  2.322023907077163E-005 -1.681360649158786E-003
 -4.811955406748244E-005  1.037888241324520E-004 -6.788205545321665E-004
  1.037888241324520E-004  2.322023907077167E-005  3.061580694865528E-003
 -6.788205545321665E-004  3.061580694865528E-003  1.550264725968026E-005
  8.710014080533033E-005 -2.483227738655750E-005  1.614358142698934E-003
 -2.483227738655750E-005 -3.965698045763560E-005 -6.788205545321665E-004
  1.614358142698934E-003 -6.788205545321665E-004  1.231478293221218E-004
 -4.811955406748244E-005  1.037888241324520E-004 -6.788205545321665E-004
  1.037888241324520E-004  2.322023907077167E-005  3.061580694865528E-003
 -6.788205545321665E-004  3.061580694865528E-003  1.550264725968026E-005
 -1.020135466776719E-003  1.281569256202968E-004  1.231478293221216E-004
  1.281569256202968E-004 -1.681360649158786E-003  1.550264725968026E-005
  1.231478293221216E-004  1.550264725968026E-005  2.922335306212422E-003
 CC_ref
  0.144293310228407      -3.920936711229844E-002  4.358819102845669E-003
 -3.920936711229844E-002  0.223960962024293       6.589547007166323E-004
  4.358819102845669E-003  6.589547007166323E-004  0.157474773521176     
 -3.920936711229844E-002  1.278942201465758E-002 -1.178787932910829E-003
  1.278942201465758E-002 -6.217371317592000E-002 -1.024175635445645E-004
 -1.178787932910829E-003 -1.024175635445645E-004 -4.250230441849764E-002
  4.358819102845669E-003 -1.178787932910829E-003  1.315984412677522E-003
 -1.178787932910829E-003  6.723449221731678E-003 -5.430967073862102E-004
  1.315984412677522E-003 -5.430967073862102E-004  4.847268053514663E-003
 -3.920936711229844E-002  1.278942201465758E-002 -1.178787932910829E-003
  1.278942201465758E-002 -6.217371317592000E-002 -1.024175635445645E-004
 -1.178787932910829E-003 -1.024175635445645E-004 -4.250230441849764E-002
  0.223960962024293      -6.217371317592000E-002  6.723449221731678E-003
 -6.217371317592000E-002  0.360089660189809       1.120749265608253E-003
  6.723449221731678E-003  1.120749265608253E-003  0.247864648306650     
  6.589547007166323E-004 -1.024175635445645E-004 -5.430967073862102E-004
 -1.024175635445645E-004  1.120749265608252E-003  2.393122839976195E-003
 -5.430967073862102E-004  2.393122839976195E-003  7.864076056887201E-004
  4.358819102845669E-003 -1.178787932910829E-003  1.315984412677522E-003
 -1.178787932910829E-003  6.723449221731678E-003 -5.430967073862102E-004
  1.315984412677522E-003 -5.430967073862102E-004  4.847268053514663E-003
  6.589547007166323E-004 -1.024175635445645E-004 -5.430967073862102E-004
 -1.024175635445645E-004  1.120749265608252E-003  2.393122839976195E-003
 -5.430967073862102E-004  2.393122839976195E-003  7.864076056887201E-004
  0.157474773521176      -4.250230441849764E-002  4.847268053514663E-003
 -4.250230441849764E-002  0.247864648306650       7.864076056887201E-004
  4.847268053514663E-003  7.864076056887201E-004  0.177259742560651     
 DDSDDE
  0.204181765326597       0.199256712199301       0.199809885667652     
  9.424305266774119E-005 -1.972045012935971E-005  1.160475109340667E-005
  0.199256712199301       0.204361285703178       0.199630365338386     
  4.233116802365581E-005  1.660057818167178E-005 -1.086069911897339E-005
  0.199809885667652       0.199630365338385       0.203808112299195     
 -1.365743682807431E-004  3.119890590164639E-006 -7.440404543022328E-007
  9.424305266775030E-005  4.233116802363683E-005 -1.365743682807397E-004
  2.705924890614689E-003 -3.978454916360912E-005 -3.142259963915900E-005
 -1.972045012936458E-005  1.660057818167390E-005  3.119890590159869E-006
 -3.978454916360971E-005  2.057799298282727E-003  3.032563482245555E-005
  1.160475109340557E-005 -1.086069911897373E-005 -7.440404543024496E-007
 -3.142259963915910E-005  3.032563482245545E-005  2.209725605873072E-003

               CONVERGENCE CHECKS FOR EQUILIBRIUM ITERATION     3


 AVERAGE FORCE                      3.580E-04   TIME AVG. FORCE       3.580E-04
 LARGEST RESIDUAL FORCE             1.549E-03   AT NODE        594   DOF  2
   INSTANCE: PART-1-1                                                                        
 LARGEST INCREMENT OF DISP.          2.65       AT NODE        630   DOF  2
   INSTANCE: PART-1-1                                                                        
 LARGEST CORRECTION TO DISP.        0.212       AT NODE        594   DOF  2
   INSTANCE: PART-1-1                                                                        
          FORCE     EQUILIBRIUM NOT ACHIEVED WITHIN TOLERANCE.

  NUMBER OF EQUATIONS =      3888     NUMBER OF RHS =    1
  NUMBER OF FLOATING PT. OPERATIONS =  1.46E+08

     CHECK POINT   START OF SOLVER    

     CHECK POINT  END OF SOLVER       

       ELAPSED USER TIME (SEC)      =  4.00000E-02
       ELAPSED SYSTEM TIME (SEC)    =  1.00000E-02
       ELAPSED TOTAL CPU TIME (SEC) =  5.00000E-02
       ELAPSED WALLCLOCK TIME (SEC) =          0
 ***************************************************
 deformation gradient
   1.06229589693296       0.337368324996595      -4.976915792903849E-002
 -8.186884911923635E-002  0.884734837368815      -1.578508932108482E-002
  1.333966191477812E-002  8.958765478064748E-003   1.03581377036813     
 J
   1.00282196492697     
 C
   1.24476692843257       0.212298178246609      -3.435850730061051E-002
  0.212298178246609       0.789707409955007      -9.516383735612154E-003
 -3.435850730061051E-002 -9.516383735612154E-003   1.07316837294313     
 Chat
   1.24243062922188       0.211899716450317      -3.429401992417616E-002
  0.211899716450317       0.788225210551721      -9.498522464315273E-003
 -3.429401992417616E-002 -9.498522464315273E-003   1.07115414653224     
 I1hat, I2hat, I4ahat, I4shat
   3.10180998630585        3.10829277570444        1.24243062922188     
  0.788225210551721     
 S^hat
  3.011866933613502E-003 -1.944013165049363E-004  3.146206485401076E-005
 -1.944013165049363E-004  3.926667864111289E-003  8.714146969363910E-006
  3.146206485401076E-005  8.714146969363910E-006  2.714855404492167E-003
 S_iso
  2.927990297501012E-004  5.344457789158560E-004 -4.900969012717961E-005
  5.344457789158560E-004 -3.543672044309326E-004 -5.876133604887925E-006
 -4.900969012717961E-005 -5.876133604887925E-006 -2.935455486014276E-004
 S
  7.697189221968592E-004  4.064050362800138E-004 -3.487605448515469E-005
  4.064050362800138E-004  3.967880568529076E-004 -3.314566389453835E-006
 -3.487605448515469E-005 -3.314566389453835E-006  2.343265769341037E-004
 sigma
  7.973872396760817E-004  6.156156296759915E-004 -7.994801634552663E-005
  6.156156296759915E-004  6.387571943359196E-004 -5.141411559469151E-005
 -7.994801634552663E-005 -5.141411559469151E-005  2.570342350738934E-004
 Psi24a
  5.436035631650580E-005
 CChat
  4.790191009967591E-003 -3.093715121247594E-004  5.006893344884011E-005
 -3.093715121247594E-004  8.071687309689610E-003  1.386774983450817E-005
  5.006893344884011E-005  1.386774983450817E-005  6.155622209654205E-003
 -3.093715121247594E-004 -8.939963678789708E-004 -3.234286203760953E-006
 -8.939963678789708E-004 -4.033218342274112E-004 -8.958104133132292E-007
 -3.234286203760953E-006 -8.958104133132292E-007 -2.795897154400011E-004
  5.006893344884011E-005 -3.234286203760953E-006 -9.134572968490809E-004
 -3.234286203760953E-006  6.527392886857933E-005  1.449786751821886E-007
 -9.134572968490809E-004  1.449786751821886E-007  4.524902360660898E-005
 -3.093715121247594E-004 -8.939963678789708E-004 -3.234286203760953E-006
 -8.939963678789708E-004 -4.033218342274112E-004 -8.958104133132292E-007
 -3.234286203760953E-006 -8.958104133132292E-007 -2.795897154400011E-004
  8.071687309689610E-003 -4.033218342274112E-004  6.527392886857933E-005
 -4.033218342274112E-004  8.139825077299379E-003  1.807912519626298E-005
  6.527392886857933E-005  1.807912519626298E-005  7.470234568192955E-003
  1.386774983450817E-005 -8.958104133132292E-007  1.449786751821886E-007
 -8.958104133132292E-007  1.807912519626298E-005 -9.139405811209674E-004
  1.449786751821886E-007 -9.139405811209674E-004  1.253276425936620E-005
  5.006893344884011E-005 -3.234286203760953E-006 -9.134572968490809E-004
 -3.234286203760953E-006  6.527392886857933E-005  1.449786751821886E-007
 -9.134572968490809E-004  1.449786751821886E-007  4.524902360660898E-005
  1.386774983450817E-005 -8.958104133132292E-007  1.449786751821886E-007
 -8.958104133132292E-007  1.807912519626298E-005 -9.139405811209674E-004
  1.449786751821886E-007 -9.139405811209674E-004  1.253276425936620E-005
  6.155622209654205E-003 -2.795897154400011E-004  4.524902360660898E-005
 -2.795897154400011E-004  7.470234568192955E-003  1.253276425936620E-005
  4.524902360660898E-005  1.253276425936620E-005  3.911838913884684E-003
 dShat/dC
 -2.467363848118870E-004  3.961574633409928E-005 -6.411444134288157E-006
  3.961574633409928E-005  6.220616433438529E-004 -1.775797829268376E-006
 -6.411444134288157E-006 -1.775797829268376E-006  6.019258986998842E-004
  5.554965371648595E-004 -5.000817868325029E-004  6.834873990750753E-006
 -5.000817868325029E-004  7.165101502776000E-004  1.893076527203592E-006
  6.834873990750753E-006  1.893076527203592E-006  5.262076804525330E-004
 -5.334325204547556E-005  4.146607859612944E-006 -4.585207951987704E-004
  4.146607859612944E-006 -6.869481958000555E-005 -1.858740000460294E-007
 -4.585207951987704E-004 -1.858740000460294E-007 -5.087791446642432E-005
  5.554965371648595E-004 -5.000817868325029E-004  6.834873990750753E-006
 -5.000817868325029E-004  7.165101502776000E-004  1.893076527203592E-006
  6.834873990750753E-006  1.893076527203592E-006  5.262076804525330E-004
 -1.245816335409514E-004  1.044454928907363E-004 -1.690354227078511E-005
  1.044454928907363E-004 -1.311139934664579E-003 -4.681827220621827E-006
 -1.690354227078511E-005 -4.681827220621827E-006 -1.665272302700230E-004
 -7.266724524210294E-006  5.964206340883981E-007 -9.652519338511230E-008
  5.964206340883981E-007 -9.319842056172128E-006 -4.578764397458632E-004
 -9.652519338511230E-008 -4.578764397458632E-004 -7.051057593778525E-006
 -5.334325204547556E-005  4.146607859612944E-006 -4.585207951987704E-004
  4.146607859612944E-006 -6.869481958000555E-005 -1.858740000460294E-007
 -4.585207951987704E-004 -1.858740000460294E-007 -5.087791446642432E-005
 -7.266724524210294E-006  5.964206340883981E-007 -9.652519338511230E-008
  5.964206340883981E-007 -9.319842056172128E-006 -4.578764397458632E-004
 -9.652519338511230E-008 -4.578764397458632E-004 -7.051057593778525E-006
  1.545389836008985E-004  7.532412510165690E-005 -1.219051677029035E-005
  7.532412510165690E-005 -4.475596553643992E-005 -3.376445737485137E-006
 -1.219051677029035E-005 -3.376445737485137E-006 -7.872074805682497E-004
 CCvol
  0.142407813248747      -3.823284047131976E-002  4.220289773842918E-003
 -3.823284047131976E-002  0.225502194620355       7.755931965180895E-004
  4.220289773842918E-003  7.755931965180895E-004  0.158511002390094     
 -3.823284047131976E-002  9.660551472965389E-003 -1.138395282924805E-003
  9.660551472965389E-003 -6.021723926532097E-002 -2.246881608846479E-004
 -1.138395282924805E-003 -2.246881608846479E-004 -4.255645063068302E-002
  4.220289773842918E-003 -1.138395282924805E-003 -3.193817954741119E-004
 -1.138395282924805E-003  6.685687562840082E-003  1.421498734280813E-004
 -3.193817954741119E-004  1.421498734280813E-004  4.671168824317870E-003
 -3.823284047131976E-002  9.660551472965389E-003 -1.138395282924805E-003
  9.660551472965389E-003 -6.021723926532097E-002 -2.246881608846479E-004
 -1.138395282924805E-003 -2.246881608846479E-004 -4.255645063068302E-002
  0.225502194620355      -6.021723926532098E-002  6.685687562840083E-003
 -6.021723926532098E-002  0.353266430379730       1.204698619600302E-003
  6.685687562840083E-003  1.204698619600302E-003  0.249658054678680     
  7.755931965180895E-004 -2.246881608846479E-004  1.421498734280813E-004
 -2.246881608846479E-004  1.204698619600302E-003 -6.964525377321071E-004
  1.421498734280813E-004 -6.964525377321071E-004  8.465983715154106E-004
  4.220289773842918E-003 -1.138395282924805E-003 -3.193817954741119E-004
 -1.138395282924805E-003  6.685687562840082E-003  1.421498734280813E-004
 -3.193817954741119E-004  1.421498734280813E-004  4.671168824317870E-003
  7.755931965180895E-004 -2.246881608846479E-004  1.421498734280813E-004
 -2.246881608846479E-004  1.204698619600302E-003 -6.964525377321071E-004
  1.421498734280813E-004 -6.964525377321071E-004  8.465983715154106E-004
  0.158511002390094      -4.255645063068302E-002  4.671168824317871E-003
 -4.255645063068302E-002  0.249658054678680       8.465983715154106E-004
  4.671168824317871E-003  8.465983715154106E-004  0.174461821323329     
 CCiso
  1.743975831382361E-003 -8.657540678152979E-004  8.588707411643010E-005
 -8.657540678152979E-004 -1.632299523048520E-003 -4.813310066314939E-005
  8.588707411643010E-005 -4.813310066314939E-005 -1.020176092393824E-003
 -8.657540678152986E-004  3.051704183849015E-003 -2.318313241399317E-005
  3.051704183849015E-003 -1.802784554807162E-003  1.017806070361945E-004
 -2.318313241399317E-005  1.017806070361945E-004  1.277006335612219E-004
  8.588707411643009E-005 -2.318313241399316E-005  1.613434970003177E-003
 -2.318313241399316E-005 -4.002638704828883E-005 -6.772319445436385E-004
  1.613434970003177E-003 -6.772319445436385E-004  1.216430242952151E-004
 -8.657540678152986E-004  3.051704183849015E-003 -2.318313241399317E-005
  3.051704183849015E-003 -1.802784554807162E-003  1.017806070361945E-004
 -2.318313241399317E-005  1.017806070361945E-004  1.277006335612219E-004
 -1.632299523048522E-003 -1.802784554807160E-003 -4.002638704828882E-005
 -1.802784554807160E-003  6.721363399947730E-003  2.663039841262282E-005
 -4.002638704828882E-005  2.663039841262282E-005 -1.681126135073040E-003
 -4.813310066314939E-005  1.017806070361945E-004 -6.772319445436385E-004
  1.017806070361945E-004  2.663039841262285E-005  3.061554923597924E-003
 -6.772319445436385E-004  3.061554923597924E-003  1.784749577019776E-005
  8.588707411643009E-005 -2.318313241399316E-005  1.613434970003177E-003
 -2.318313241399316E-005 -4.002638704828883E-005 -6.772319445436385E-004
  1.613434970003177E-003 -6.772319445436385E-004  1.216430242952151E-004
 -4.813310066314939E-005  1.017806070361945E-004 -6.772319445436385E-004
  1.017806070361945E-004  2.663039841262285E-005  3.061554923597924E-003
 -6.772319445436385E-004  3.061554923597924E-003  1.784749577019776E-005
 -1.020176092393823E-003  1.277006335612215E-004  1.216430242952151E-004
  1.277006335612215E-004 -1.681126135073043E-003  1.784749577019776E-005
  1.216430242952151E-004  1.784749577019776E-005  2.925028233385672E-003
 CC_ref
  0.144151789080129      -3.909859453913506E-002  4.306176847959348E-003
 -3.909859453913506E-002  0.223869895097307       7.274600958549402E-004
  4.306176847959348E-003  7.274600958549402E-004  0.157490826297700     
 -3.909859453913506E-002  1.271225565681440E-002 -1.161578415338798E-003
  1.271225565681440E-002 -6.202002382012813E-002 -1.229075538484534E-004
 -1.161578415338798E-003 -1.229075538484534E-004 -4.242874999712180E-002
  4.306176847959348E-003 -1.161578415338798E-003  1.294053174529066E-003
 -1.161578415338798E-003  6.645661175791793E-003 -5.350820711155573E-004
  1.294053174529066E-003 -5.350820711155573E-004  4.792811848613085E-003
 -3.909859453913506E-002  1.271225565681440E-002 -1.161578415338798E-003
  1.271225565681440E-002 -6.202002382012813E-002 -1.229075538484534E-004
 -1.161578415338798E-003 -1.229075538484534E-004 -4.242874999712180E-002
  0.223869895097307      -6.202002382012814E-002  6.645661175791794E-003
 -6.202002382012814E-002  0.359987793779678       1.231329018012925E-003
  6.645661175791794E-003  1.231329018012925E-003  0.247976928543606     
  7.274600958549402E-004 -1.229075538484534E-004 -5.350820711155573E-004
 -1.229075538484534E-004  1.231329018012925E-003  2.365102385865818E-003
 -5.350820711155573E-004  2.365102385865818E-003  8.644458672856084E-004
  4.306176847959348E-003 -1.161578415338798E-003  1.294053174529066E-003
 -1.161578415338798E-003  6.645661175791793E-003 -5.350820711155573E-004
  1.294053174529066E-003 -5.350820711155573E-004  4.792811848613085E-003
  7.274600958549402E-004 -1.229075538484534E-004 -5.350820711155573E-004
 -1.229075538484534E-004  1.231329018012925E-003  2.365102385865818E-003
 -5.350820711155573E-004  2.365102385865818E-003  8.644458672856084E-004
  0.157490826297700      -4.242874999712180E-002  4.792811848613086E-003
 -4.242874999712180E-002  0.247976928543606       8.644458672856084E-004
  4.792811848613086E-003  8.644458672856084E-004  0.177386849556714     
 DDSDDE
  0.204227215781365       0.199303234924256       0.199855907153996     
  9.444139409652398E-005 -1.964132423406954E-005  1.146293366944164E-005
  0.199303234924256       0.204406196858454       0.199676926124538     
  4.215487801850369E-005  1.658062176323641E-005 -1.084363833926688E-005
  0.199855907153996       0.199676926124538       0.203853524693178     
 -1.365964194656442E-004  3.060720930804625E-006 -6.192836908750469E-007
  9.444139409652236E-005  4.215487801847799E-005 -1.365964194656280E-004
  2.704592846699335E-003 -3.945775824292401E-005 -3.151052613447258E-005
 -1.964132423407423E-005  1.658062176323745E-005  3.060720930804625E-006
 -3.945775824292376E-005  2.057189213880154E-003  3.027612323445886E-005
  1.146293366944163E-005 -1.084363833926724E-005 -6.192836908746065E-007
 -3.151052613447254E-005  3.027612323445929E-005  2.209013885016664E-003

               CONVERGENCE CHECKS FOR EQUILIBRIUM ITERATION     4


 AVERAGE FORCE                      3.447E-04   TIME AVG. FORCE       3.447E-04
 LARGEST RESIDUAL FORCE             1.451E-04   AT NODE        668   DOF  2
   INSTANCE: PART-1-1                                                                        
 LARGEST INCREMENT OF DISP.          2.66       AT NODE        648   DOF  2
   INSTANCE: PART-1-1                                                                        
 LARGEST CORRECTION TO DISP.        3.598E-02   AT NODE        594   DOF  2
   INSTANCE: PART-1-1                                                                        
          FORCE     EQUILIBRIUM NOT ACHIEVED WITHIN TOLERANCE.

  NUMBER OF EQUATIONS =      3888     NUMBER OF RHS =    1
  NUMBER OF FLOATING PT. OPERATIONS =  1.46E+08

     CHECK POINT   START OF SOLVER    

     CHECK POINT  END OF SOLVER       

       ELAPSED USER TIME (SEC)      =  4.00000E-02
       ELAPSED SYSTEM TIME (SEC)    =  1.00000E-02
       ELAPSED TOTAL CPU TIME (SEC) =  5.00000E-02
       ELAPSED WALLCLOCK TIME (SEC) =          0
 ***************************************************
 deformation gradient
   1.06229870216970       0.337361570216257      -4.976292851212732E-002
 -8.187049023224056E-002  0.884734096664508      -1.578670425004843E-002
  1.333835193265349E-002  8.957116300124978E-003   1.03581209508401     
 J
   1.00282194754716     
 C
   1.24476771074431       0.212289961189930      -3.435394247290233E-002
  0.212289961189930       0.789706419002708      -9.519410416820862E-003
 -3.435394247290233E-002 -9.519410416820862E-003   1.07316483788703     
 Chat
   1.24243142442027       0.211891517264387      -3.428946406035712E-002
  0.211891517264387       0.788224230566426      -9.501543574535521E-003
 -3.428946406035712E-002 -9.501543574535521E-003   1.07115063048708     
 I1hat, I2hat, I4ahat, I4shat
   3.10180628547378        3.10828857692192        1.24243142442027     
  0.788224230566426     
 S^hat
  3.011856745144850E-003 -1.943934025544732E-004  3.145782179729789E-005
 -1.943934025544732E-004  3.926657460227731E-003  8.716901029449518E-006
  3.145782179729789E-005  8.716901029449518E-006  2.714849753835665E-003
 S_iso
  2.928100078552870E-004  5.344205378214856E-004 -4.900021145323177E-005
  5.344205378214856E-004 -3.543536262210074E-004 -5.889433106149979E-006
 -4.900021145323177E-005 -5.889433106149979E-006 -2.935508562502927E-004
 S
  7.697247692429438E-004  4.063860009101296E-004 -3.486902821146484E-005
  4.063860009101296E-004  3.967951944184181E-004 -3.325052784485041E-006
 -3.486902821146484E-005 -3.325052784485041E-006  2.343196444128884E-004
 sigma
  7.974005700122188E-004  6.155953092673110E-004 -7.993579092417408E-005
  6.155953092673109E-004  6.387429675876857E-004 -5.141733304082907E-005
 -7.993579092417408E-005 -5.141733304082907E-005  2.570247036058139E-004
 Psi24a
  5.436009244242066E-005
 CChat
  4.790153979436801E-003 -3.093575701631495E-004  5.006196293678434E-005
 -3.093575701631495E-004  8.071639939003943E-003  1.387207223283981E-005
  5.006196293678434E-005  1.387207223283981E-005  6.155590665964767E-003
 -3.093575701631495E-004 -8.939961933576207E-004 -3.233715197236363E-006
 -8.939961933576207E-004 -4.033039517484463E-004 -8.960561704929438E-007
 -3.233715197236363E-006 -8.960561704929438E-007 -2.795774744656685E-004
  5.006196293678434E-005 -3.233715197236363E-006 -9.134556173333213E-004
 -3.233715197236363E-006  6.526488902159868E-005  1.450047942025056E-007
 -9.134556173333213E-004  1.450047942025056E-007  4.524278218657695E-005
 -3.093575701631495E-004 -8.939961933576207E-004 -3.233715197236363E-006
 -8.939961933576207E-004 -4.033039517484463E-004 -8.960561704929438E-007
 -3.233715197236363E-006 -8.960561704929438E-007 -2.795774744656685E-004
  8.071639939003943E-003 -4.033039517484463E-004  6.526488902159868E-005
 -4.033039517484463E-004  8.139773991462426E-003  1.808477338212111E-005
  6.526488902159868E-005  1.808477338212111E-005  7.470198653146999E-003
  1.387207223283981E-005 -8.960561704929438E-007  1.450047942025056E-007
 -8.960561704929438E-007  1.808477338212111E-005 -9.139387345699596E-004
  1.450047942025056E-007 -9.139387345699596E-004  1.253668665168700E-005
  5.006196293678434E-005 -3.233715197236363E-006 -9.134556173333213E-004
 -3.233715197236363E-006  6.526488902159868E-005  1.450047942025056E-007
 -9.134556173333213E-004  1.450047942025056E-007  4.524278218657695E-005
  1.387207223283981E-005 -8.960561704929438E-007  1.450047942025056E-007
 -8.960561704929438E-007  1.808477338212111E-005 -9.139387345699596E-004
  1.450047942025056E-007 -9.139387345699596E-004  1.253668665168700E-005
  6.155590665964767E-003 -2.795774744656685E-004  4.524278218657695E-005
 -2.795774744656685E-004  7.470198653146999E-003  1.253668665168700E-005
  4.524278218657695E-005  1.253668665168700E-005  3.911818713597989E-003
 dShat/dC
 -2.467242892122346E-004  3.961333040836354E-005 -6.410449492670331E-006
  3.961333040836354E-005  6.220748018392966E-004 -1.776323044295837E-006
 -6.410449492670331E-006 -1.776323044295837E-006  6.019348631090188E-004
  5.554684974863758E-004 -5.000772001802971E-004  6.833636693056490E-006
 -5.000772001802971E-004  7.164745578008174E-004  1.893587391664378E-006
  6.833636693056490E-006  1.893587391664378E-006  5.261820319010984E-004
 -5.333307100229680E-005  4.145676746482661E-006 -4.585196637282799E-004
  4.145676746482661E-006 -6.868175141277346E-005 -1.858985614959497E-007
 -4.585196637282799E-004 -1.858985614959497E-007 -5.086833638102982E-005
  5.554684974863758E-004 -5.000772001802971E-004  6.833636693056490E-006
 -5.000772001802971E-004  7.164745578008174E-004  1.893587391664378E-006
  6.833636693056490E-006  1.893587391664378E-006  5.261820319010984E-004
 -1.245662038213656E-004  1.044403147773525E-004 -1.690111273091687E-005
  1.044403147773525E-004 -1.311119170681691E-003 -4.683265354870385E-006
 -1.690111273091687E-005 -4.683265354870385E-006 -1.665147402400848E-004
 -7.280156879449369E-006  5.974060338795085E-007 -9.667556772738650E-008
  5.974060338795085E-007 -9.337192999191068E-006 -4.578755758662279E-004
 -9.667556772738650E-008 -4.578755758662279E-004 -7.063741105733598E-006
 -5.333307100229680E-005  4.145676746482661E-006 -4.585196637282799E-004
  4.145676746482661E-006 -6.868175141277346E-005 -1.858985614959497E-007
 -4.585196637282799E-004 -1.858985614959497E-007 -5.086833638102982E-005
 -7.280156879449369E-006  5.974060338795085E-007 -9.667556772738650E-008
  5.974060338795085E-007 -9.337192999191068E-006 -4.578755758662279E-004
 -9.667556772738650E-008 -4.578755758662279E-004 -7.063741105733598E-006
  1.545346000175426E-004  7.532150665632775E-005 -1.218894521502483E-005
  7.532150665632775E-005 -4.476220456709878E-005 -3.377532932107852E-006
 -1.218894521502483E-005 -3.377532932107852E-006 -7.872112682030875E-004
 CCvol
  0.142406505564065      -3.823104770338393E-002  4.219564139910862E-003
 -3.823104770338393E-002  0.225500613556471       7.764377351840213E-004
  4.219564139910862E-003  7.764377351840213E-004  0.158510759055472     
 -3.823104770338393E-002  9.659688818021851E-003 -1.138159421555601E-003
  9.659688818021851E-003 -6.021454716698080E-002 -2.249035610039761E-004
 -1.138159421555601E-003 -2.249035610039761E-004 -4.255478062526061E-002
  4.219564139910863E-003 -1.138159421555601E-003 -3.194203650884822E-004
 -1.138159421555601E-003  6.684553821481848E-003  1.421657507887130E-004
 -3.194203650884822E-004  1.421657507887130E-004  4.670401538074094E-003
 -3.823104770338393E-002  9.659688818021851E-003 -1.138159421555601E-003
[...]
 -3.003619208536285E-005  1.126317740476095E-004 -1.811465576946216E-004
 -1.988352543216628E-003 -3.828002357720200E-003 -1.902854627958706E-005
 -3.828002357720200E-003  1.516310138095367E-002  8.684958790900451E-005
 -1.902854627958706E-005  8.684958790900451E-005 -1.806918811043479E-003
 -6.504025842649169E-005  1.126317740476095E-004 -1.301522017215693E-003
  1.126317740476095E-004  8.684958790900451E-005  6.328381018676184E-003
 -1.301522017215693E-003  6.328381018676184E-003  6.308882676558354E-005
  3.466963001987231E-005 -3.003619208536286E-005  1.715890242200418E-003
 -3.003619208536286E-005 -1.902854627958709E-005 -1.301522017215693E-003
  1.715890242200418E-003 -1.301522017215693E-003  1.835792843076353E-004
 -6.504025842649169E-005  1.126317740476095E-004 -1.301522017215693E-003
  1.126317740476095E-004  8.684958790900451E-005  6.328381018676184E-003
 -1.301522017215693E-003  6.328381018676184E-003  6.308882676558354E-005
 -1.619626232478953E-003 -1.811465576946243E-004  1.835792843076351E-004
 -1.811465576946243E-004 -1.806918811043479E-003  6.308882676558356E-005
  1.835792843076351E-004  6.308882676558356E-005  7.744950171693561E-003
 CC_ref
  7.085839907448636E-002 -3.297923810595887E-002  2.444304412470925E-003
 -3.297923810595887E-002  0.185237002065788       7.424788452728925E-004
  2.444304412470925E-003  7.424788452728925E-004  0.139065819330179     
 -3.297923810595887E-002  1.733144990468828E-002 -1.159335018067997E-003
  1.733144990468828E-002 -8.960345257116741E-002 -2.937729136352019E-004
 -1.159335018067997E-003 -2.937729136352019E-004 -6.539978660103456E-002
  2.444304412470926E-003 -1.159335018067997E-003  9.031142084041282E-004
 -1.159335018067997E-003  6.435229068045606E-003 -8.589351042054552E-004
  9.031142084041282E-004 -8.589351042054552E-004  4.963269378643371E-003
 -3.297923810595887E-002  1.733144990468828E-002 -1.159335018067997E-003
  1.733144990468828E-002 -8.960345257116741E-002 -2.937729136352019E-004
 -1.159335018067997E-003 -2.937729136352019E-004 -6.539978660103456E-002
  0.185237002065788      -8.960345257116741E-002  6.435229068045606E-003
 -8.960345257116741E-002  0.504104698046216       2.155904041209857E-003
  6.435229068045606E-003  2.155904041209857E-003  0.369953604779807     
  7.424788452728926E-004 -2.937729136352020E-004 -8.589351042054552E-004
 -2.937729136352020E-004  2.155904041209857E-003  3.968920589686772E-003
 -8.589351042054552E-004  3.968920589686772E-003  1.616224898958030E-003
  2.444304412470926E-003 -1.159335018067997E-003  9.031142084041282E-004
 -1.159335018067997E-003  6.435229068045606E-003 -8.589351042054552E-004
  9.031142084041282E-004 -8.589351042054552E-004  4.963269378643371E-003
  7.424788452728926E-004 -2.937729136352020E-004 -8.589351042054552E-004
 -2.937729136352020E-004  2.155904041209857E-003  3.968920589686772E-003
 -8.589351042054552E-004  3.968920589686772E-003  1.616224898958030E-003
  0.139065819330179      -6.539978660103456E-002  4.963269378643370E-003
 -6.539978660103456E-002  0.369953604779807       1.616224898958030E-003
  4.963269378643370E-003  1.616224898958030E-003  0.283251645974193     
 DDSDDE
  0.207067818483143       0.200165038952135       0.200510304460815     
  8.409782809318630E-004 -8.800638629841422E-005 -1.739544428792337E-005
  0.200165038952135       0.206638829208762       0.200939294008819     
  1.134053575839174E-004  3.665834742466894E-005 -1.713399486829902E-005
  0.200510304460815       0.200939294008818       0.206293563943526     
 -9.543840552115963E-004  5.134807741675966E-005  3.452946705445886E-005
  8.409782809318977E-004  1.134053575839356E-004 -9.543840552115910E-004
  4.369384210567622E-003 -1.326093381830421E-004 -1.066794611868079E-004
 -8.800638629841862E-005  3.665834742467255E-005  5.134807741675836E-005
 -1.326093381830416E-004  2.617035878004636E-003  1.666087809786556E-004
 -1.739544428792337E-005 -1.713399486829954E-005  3.452946705445625E-005
 -1.066794611868083E-004  1.666087809786556E-004  2.645630674817738E-003

               CONVERGENCE CHECKS FOR EQUILIBRIUM ITERATION     1


 AVERAGE FORCE                      9.327E-04   TIME AVG. FORCE       4.943E-04
 LARGEST RESIDUAL FORCE             7.063E-06   AT NODE         91   DOF  2
   INSTANCE: PART-1-1                                                                        
 LARGEST INCREMENT OF DISP.          1.17       AT NODE        144   DOF  2
   INSTANCE: PART-1-1                                                                        
 LARGEST CORRECTION TO DISP.       -1.839E-02   AT NODE         55   DOF  3
   INSTANCE: PART-1-1                                                                        
          FORCE     EQUILIBRIUM NOT ACHIEVED WITHIN TOLERANCE.

  NUMBER OF EQUATIONS =      3888     NUMBER OF RHS =    1
  NUMBER OF FLOATING PT. OPERATIONS =  1.46E+08

     CHECK POINT   START OF SOLVER    

     CHECK POINT  END OF SOLVER       

       ELAPSED USER TIME (SEC)      =  6.00000E-02
       ELAPSED SYSTEM TIME (SEC)    =  1.00000E-02
       ELAPSED TOTAL CPU TIME (SEC) =  7.00000E-02
       ELAPSED WALLCLOCK TIME (SEC) =          0
 ***************************************************
 deformation gradient
   1.23335861714192       0.567569040585139      -5.770354095592805E-002
 -0.118711396463724       0.827160651760709      -1.950832599831296E-002
  1.038349852440178E-002  1.172928072148655E-002  0.924736456774061     
 J
   1.00645201168880     
 C
   1.84663779294781       0.324182753236345      -3.389681401990259E-002
  0.324182753236345       0.698667714254824      -9.570700385014848E-003
 -3.389681401990259E-002 -9.570700385014848E-003  0.855382907554894     
 Chat
   1.83873723718263       0.322795787189275      -3.375179171479817E-002
  0.322795787189275       0.695678571901688      -9.529753615490027E-003
 -3.375179171479817E-002 -9.529753615490027E-003  0.851723283351637     
 I1hat, I2hat, I4ahat, I4shat
   3.38613909243596        3.33236392968219        1.83873723718263     
  0.695678571901688     
 S^hat
  3.285725325067071E-003 -3.570265959352031E-004  3.733099309497045E-005
 -3.570265959352031E-004  5.150208531542066E-003  1.054033425611151E-005
  3.733099309497045E-005  1.054033425611151E-005  3.831115607024686E-003
 S_iso
  7.834075977493842E-004  7.978830251820560E-004 -4.852767563510846E-005
  7.978830251820560E-004 -1.444731437775430E-003 -1.734180336503645E-005
 -4.852767563510846E-005 -1.734180336503645E-005 -1.120229174486111E-003
 S
  1.549527495899686E-003  4.427638195255441E-004 -2.214149935440448E-005
  4.427638195255441E-004  5.790254222574499E-004 -8.770950679406519E-006
 -2.214149935440448E-005 -8.770950679406519E-006  3.992125324041283E-004
 sigma
  2.220775667673555E-003  1.439951214492299E-003 -1.361215950173803E-004
  1.439951214492299E-003  1.302239808633371E-003 -9.946835165656262E-005
 -1.361215950173802E-004 -9.946835165656260E-005  3.481911622636702E-004
 Psi24a
  8.087851827227753E-005
 CChat
  5.857303378076458E-003 -6.374748646796740E-004  6.665489362000685E-005
 -6.374748646796740E-004  1.138092915246421E-002  1.881988129201638E-005
  6.665489362000685E-005  1.881988129201638E-005  9.045510242543901E-003
 -6.374748646796740E-004 -1.027207355207227E-003 -7.255850226724570E-006
 -1.027207355207227E-003 -1.000141526827804E-003 -2.048675386357814E-006
 -7.255850226724570E-006 -2.048675386357814E-006 -7.460306675102901E-004
  6.665489362000685E-005 -7.255850226724570E-006 -1.095842264298929E-003
 -7.255850226724570E-006  1.045756166545591E-004  2.142111752252756E-007
 -1.095842264298929E-003  2.142111752252756E-007  7.800557721620646E-005
 -6.374748646796740E-004 -1.027207355207227E-003 -7.255850226724570E-006
 -1.027207355207227E-003 -1.000141526827804E-003 -2.048675386357814E-006
 -7.255850226724570E-006 -2.048675386357814E-006 -7.460306675102901E-004
  1.138092915246421E-002 -1.000141526827804E-003  1.045756166545591E-004
 -1.000141526827804E-003  1.441475295161287E-002  2.952672466478105E-005
  1.045756166545591E-004  2.952672466478105E-005  1.294482696598453E-002
  1.881988129201638E-005 -2.048675386357814E-006  2.142111752252756E-007
 -2.048675386357814E-006  2.952672466478105E-005 -1.096540459823284E-003
  2.142111752252756E-007 -1.096540459823284E-003  2.202472502159358E-005
  6.665489362000685E-005 -7.255850226724570E-006 -1.095842264298929E-003
 -7.255850226724570E-006  1.045756166545591E-004  2.142111752252756E-007
 -1.095842264298929E-003  2.142111752252756E-007  7.800557721620646E-005
  1.881988129201638E-005 -2.048675386357814E-006  2.142111752252756E-007
 -2.048675386357814E-006  2.952672466478105E-005 -1.096540459823284E-003
  2.142111752252756E-007 -1.096540459823284E-003  2.202472502159358E-005
  9.045510242543901E-003 -7.460306675102901E-004  7.800557721620646E-005
 -7.460306675102901E-004  1.294482696598453E-002  2.202472502159358E-005
  7.800557721620646E-005  2.202472502159358E-005  8.020767214552015E-003
 dShat/dC
  3.654288851475383E-004 -6.159116237327536E-006  6.440022349722197E-007
 -6.159116237327536E-006  1.616821202884829E-003  1.818327950992729E-007
  6.440022349722197E-007  1.818327950992729E-007  1.370753108418389E-003
  8.738554130543037E-004 -6.613345940964792E-004  1.157260574807868E-005
 -6.613345940964792E-004  1.397368091510429E-003  3.267503023255515E-006
  1.157260574807868E-005  3.267503023255515E-006  1.095435764807446E-003
 -5.524351315966198E-005  7.169263093024299E-006 -5.514059935662393E-004
  7.169263093024299E-006 -8.863126068791034E-005 -2.116549025501579E-007
 -5.514059935662393E-004 -2.116549025501579E-007 -7.005801919587393E-005
  8.738554130543037E-004 -6.613345940964792E-004  1.157260574807868E-005
 -6.613345940964792E-004  1.397368091510429E-003  3.267503023255515E-006
  1.157260574807868E-005  3.267503023255515E-006  1.095435764807446E-003
 -1.089249686063439E-003  3.270947595832624E-004 -3.420129578699490E-005
  3.270947595832624E-004 -3.587043646087458E-003 -9.656670227603282E-006
 -3.420129578699490E-005 -9.656670227603282E-006 -1.877333774473103E-003
 -1.936607959632188E-005  2.483505932802532E-006 -2.596774130675569E-007
  2.483505932802532E-006 -3.102001935210560E-005 -5.507296889684529E-004
 -2.596774130675569E-007 -5.507296889684529E-004 -2.442027958592676E-005
 -5.524351315966198E-005  7.169263093024299E-006 -5.514059935662393E-004
  7.169263093024299E-006 -8.863126068791034E-005 -2.116549025501579E-007
 -5.514059935662393E-004 -2.116549025501579E-007 -7.005801919587393E-005
 -1.936607959632188E-005  2.483505932802532E-006 -2.596774130675569E-007
  2.483505932802532E-006 -3.102001935210560E-005 -5.507296889684529E-004
 -2.596774130675569E-007 -5.507296889684529E-004 -2.442027958592676E-005
 -5.663956424585646E-004  2.480330875077202E-004 -2.593454264330322E-005
  2.480330875077202E-004 -1.627504867222044E-003 -7.322568342727076E-006
 -2.593454264330322E-005 -7.322568342727076E-006 -2.262275936768026E-003
 CCvol
  7.004548158871197E-002 -3.246815001368257E-002  2.412458453734042E-003
 -3.246815001368257E-002  0.187223240327031       8.081651966528000E-004
  2.412458453734042E-003  8.081651966528000E-004  0.140712413941419     
 -3.246815001368257E-002  1.395323460750577E-002 -1.130516644900084E-003
  1.395323460750577E-002 -8.576678595792829E-002 -4.066927335697479E-004
 -1.130516644900084E-003 -4.066927335697479E-004 -6.522520606612572E-002
  2.412458453734042E-003 -1.130516644900084E-003 -8.126946102875408E-004
 -1.130516644900084E-003  6.459590316077557E-003  4.426334608501082E-004
 -8.126946102875408E-004  4.426334608501082E-004  4.784616611046830E-003
 -3.246815001368257E-002  1.395323460750577E-002 -1.130516644900084E-003
  1.395323460750577E-002 -8.576678595792829E-002 -4.066927335697479E-004
 -1.130516644900084E-003 -4.066927335697479E-004 -6.522520606612572E-002
  0.187223240327031      -8.576678595792828E-002  6.459590316077557E-003
 -8.576678595792828E-002  0.488768612568973       2.069993613570918E-003
  6.459590316077557E-003  2.069993613570918E-003  0.371703955010631     
  8.081651966528000E-004 -4.066927335697478E-004  4.426334608501082E-004
 -4.066927335697478E-004  2.069993613570918E-003 -2.358863079318744E-003
  4.426334608501082E-004 -2.358863079318744E-003  1.554156376969608E-003
  2.412458453734042E-003 -1.130516644900084E-003 -8.126946102875408E-004
 -1.130516644900084E-003  6.459590316077557E-003  4.426334608501082E-004
 -8.126946102875408E-004  4.426334608501082E-004  4.784616611046830E-003
  8.081651966528000E-004 -4.066927335697478E-004  4.426334608501082E-004
 -4.066927335697478E-004  2.069993613570918E-003 -2.358863079318744E-003
  4.426334608501082E-004 -2.358863079318744E-003  1.554156376969608E-003
  0.140712413941419      -6.522520606612572E-002  4.784616611046830E-003
 -6.522520606612572E-002  0.371703955010631       1.554156376969608E-003
  4.784616611046830E-003  1.554156376969608E-003  0.275521013464192     
 CCiso
  8.364980714603464E-004 -5.192712086389198E-004  3.472386414584322E-005
 -5.192712086389198E-004 -1.987277861582988E-003 -6.509304834175063E-005
  3.472386414584322E-005 -6.509304834175063E-005 -1.619499112971281E-003
 -5.192712086389206E-004  3.380180175444949E-003 -3.006945614009320E-005
  3.380180175444949E-003 -3.826451280655656E-003  1.127180993425939E-004
 -3.006945614009320E-005  1.127180993425939E-004 -1.811067777689114E-004
  3.472386414584321E-005 -3.006945614009320E-005  1.716200083399633E-003
 -3.006945614009320E-005 -1.906627031527947E-005 -1.301497187802411E-003
  1.716200083399633E-003 -1.301497187802411E-003  1.837596944922137E-004
 -5.192712086389206E-004  3.380180175444949E-003 -3.006945614009320E-005
  3.380180175444949E-003 -3.826451280655656E-003  1.127180993425939E-004
 -3.006945614009320E-005  1.127180993425939E-004 -1.811067777689114E-004
 -1.987277861582988E-003 -3.826451280655655E-003 -1.906627031527940E-005
 -3.826451280655655E-003  1.515223084458600E-002  8.685303766617904E-005
 -1.906627031527940E-005  8.685303766617904E-005 -1.807167066820557E-003
 -6.509304834175074E-005  1.127180993425939E-004 -1.301497187802411E-003
  1.127180993425939E-004  8.685303766617906E-005  6.326469397573938E-003
 -1.301497187802411E-003  6.326469397573938E-003  6.311468639269258E-005
  3.472386414584321E-005 -3.006945614009320E-005  1.716200083399633E-003
 -3.006945614009320E-005 -1.906627031527947E-005 -1.301497187802411E-003
  1.716200083399633E-003 -1.301497187802411E-003  1.837596944922137E-004
 -6.509304834175074E-005  1.127180993425939E-004 -1.301497187802411E-003
  1.127180993425939E-004  8.685303766617906E-005  6.326469397573938E-003
 -1.301497187802411E-003  6.326469397573938E-003  6.311468639269258E-005
 -1.619499112971282E-003 -1.811067777689128E-004  1.837596944922137E-004
 -1.811067777689128E-004 -1.807167066820556E-003  6.311468639269255E-005
  1.837596944922137E-004  6.311468639269255E-005  7.744818585096434E-003
 CC_ref
  7.088197966017232E-002 -3.298742122232149E-002  2.447182317879885E-003
 -3.298742122232149E-002  0.185235962465448       7.430721483110493E-004
  2.447182317879885E-003  7.430721483110493E-004  0.139092914828448     
 -3.298742122232149E-002  1.733341478295072E-002 -1.160586101040177E-003
  1.733341478295072E-002 -8.959323723858395E-002 -2.939746342271540E-004
 -1.160586101040177E-003 -2.939746342271540E-004 -6.540631284389463E-002
  2.447182317879885E-003 -1.160586101040177E-003  9.035054731120926E-004
 -1.160586101040177E-003  6.440524045762277E-003 -8.588637269523029E-004
  9.035054731120926E-004 -8.588637269523029E-004  4.968376305539044E-003
 -3.298742122232149E-002  1.733341478295072E-002 -1.160586101040177E-003
  1.733341478295072E-002 -8.959323723858395E-002 -2.939746342271540E-004
 -1.160586101040177E-003 -2.939746342271540E-004 -6.540631284389463E-002
  0.185235962465448      -8.959323723858394E-002  6.440524045762277E-003
 -8.959323723858394E-002  0.503920843413559       2.156846651237098E-003
  6.440524045762277E-003  2.156846651237098E-003  0.369896787943811     
  7.430721483110492E-004 -2.939746342271539E-004 -8.588637269523029E-004
 -2.939746342271539E-004  2.156846651237098E-003  3.967606318255194E-003
 -8.588637269523029E-004  3.967606318255194E-003  1.617271063362301E-003
  2.447182317879885E-003 -1.160586101040177E-003  9.035054731120926E-004
 -1.160586101040177E-003  6.440524045762277E-003 -8.588637269523029E-004
  9.035054731120926E-004 -8.588637269523029E-004  4.968376305539044E-003
  7.430721483110492E-004 -2.939746342271539E-004 -8.588637269523029E-004
 -2.939746342271539E-004  2.156846651237098E-003  3.967606318255194E-003
 -8.588637269523029E-004  3.967606318255194E-003  1.617271063362301E-003
  0.139092914828448      -6.540631284389464E-002  4.968376305539044E-003
 -6.540631284389464E-002  0.369896787943811       1.617271063362301E-003
  4.968376305539044E-003  1.617271063362301E-003  0.283265832049289     
 DDSDDE
  0.207066677526469       0.200165280236711       0.200510456008616     
  8.404453918398632E-004 -8.805990931227446E-005 -1.739957970432819E-005
  0.200165280236711       0.206638149609865       0.200938984198643     
  1.135999650795361E-004  3.666834188115031E-005 -1.716198107864461E-005
  0.200510456008616       0.200938984198643       0.206292974081455     
 -9.540457734370731E-004  5.139160600518600E-005  3.456158870428267E-005
  8.404453918398465E-004  1.135999650795599E-004 -9.540457734370774E-004
  4.368202251413449E-003 -1.326881074968887E-004 -1.067488294590695E-004
 -8.805990931227452E-005  3.666834188114822E-005  5.139160600518640E-005
 -1.326881074968895E-004  2.616737894013790E-003  1.665811670966028E-004
 -1.739957970432661E-005 -1.716198107864638E-005  3.456158870428351E-005
 -1.067488294590705E-004  1.665811670966027E-004  2.645416419639388E-003

               CONVERGENCE CHECKS FOR EQUILIBRIUM ITERATION     2


 AVERAGE FORCE                      9.328E-04   TIME AVG. FORCE       4.944E-04
 LARGEST RESIDUAL FORCE            -2.193E-07   AT NODE         91   DOF  2
   INSTANCE: PART-1-1                                                                        
 LARGEST INCREMENT OF DISP.          1.17       AT NODE        144   DOF  2
   INSTANCE: PART-1-1                                                                        
 LARGEST CORRECTION TO DISP.        5.908E-04   AT NODE        307   DOF  1
   INSTANCE: PART-1-1                                                                        
          THE FORCE     EQUILIBRIUM EQUATIONS HAVE CONVERGED

 ITERATION SUMMARY FOR THE INCREMENT:   2 TOTAL ITERATIONS, OF WHICH
   0 ARE SEVERE DISCONTINUITY ITERATIONS AND  2 ARE EQUILIBRIUM ITERATIONS.

 TIME INCREMENT COMPLETED  2.311E-02,  FRACTION OF STEP COMPLETED   1.00    
 STEP TIME COMPLETED       0.100    ,  TOTAL TIME COMPLETED        0.100    


          THE ANALYSIS HAS BEEN COMPLETED



     ANALYSIS SUMMARY:
     TOTAL OF         12  INCREMENTS
                       0  CUTBACKS IN AUTOMATIC INCREMENTATION
                      22  ITERATIONS INCLUDING CONTACT ITERATIONS IF PRESENT
                      22  PASSES THROUGH THE EQUATION SOLVER OF WHICH 
                      22  INVOLVE MATRIX DECOMPOSITION, INCLUDING
                       0  DECOMPOSITION(S) OF THE MASS MATRIX
                       1  REORDERING OF EQUATIONS TO MINIMIZE WAVEFRONT
                       0  ADDITIONAL RESIDUAL EVALUATIONS FOR LINE SEARCHES
                       0  ADDITIONAL OPERATOR EVALUATIONS FOR LINE SEARCHES
                       1  WARNING MESSAGES DURING USER INPUT PROCESSING
                       2  WARNING MESSAGES DURING ANALYSIS
                       0  ANALYSIS WARNINGS ARE NUMERICAL PROBLEM MESSAGES
                       2  ANALYSIS WARNINGS ARE NEGATIVE EIGENVALUE MESSAGES
                       0  ERROR MESSAGES



     JOB TIME SUMMARY
       USER TIME (SEC)      =   20.890    
       SYSTEM TIME (SEC)    =  0.53000    
       TOTAL CPU TIME (SEC) =   21.420    
       WALLCLOCK TIME (SEC) =         22
