1

   Abaqus 2020                                  Date 16-Jun-2021   Time 23:04:45
   For use by PURDUE UNIVERSITY under license from Dassault Systemes or its subsidiary.



                         The Abaqus Software is a product of:

                           Dassault Systemes SIMULIA Corp.
                           1301 Atwood Avenue, Suite 101W
                              Johnston, RI 02919, USA
 


                   The Abaqus Software is available only under license
                   from Dassault Systemes or its subsidiary and may be
                   used or reproduced only in accordance with the terms
                   of such license.
 
                          On machine gilbreth-fe01.rcac.purdue.edu 
                          you are authorized to run
                          Abaqus/Standard until 30-Jun-2021

                          Your site id is: 100000000002199 


 
                    For assistance or any other information you may
                    obtain contact information for your local office
                    from the world wide web at:

                      http://www.3ds.com/products/simulia/locations/

 
                * * * * * * * * * * * * * * * * * * * * * * * * * * * * * * 
                *                                                         * 
                *                   *****************                     * 
                *                   *  N O T I C E  *                     * 
                *                   *****************                     * 
                *                                                         * 
                *                                                         * 
                *                       Abaqus 2020                       * 
                *                                                         * 
                *          BUILD ID: 2019_09_13-13.49.31 163176           * 
                *                                                         * 
                *                                                         * 
                *  Please make sure you are using                         * 
                *  release Abaqus 2020 manuals                            * 
                *  plus the notes accompanying this release.              * 
                *                                                         * 
                *                                                         * 
                *                                                         * 
                *                                                         * 
                *                                                         * 
                *   This program may not be used for commercial purposes  * 
                *           without payment of a commercial fee.          * 
                *                                                         * 
                * * * * * * * * * * * * * * * * * * * * * * * * * * * * * * 


 



     PROCESSING PART, INSTANCE, AND ASSEMBLY INFORMATION
   *******************************************************


     END PROCESSING PART, INSTANCE, AND ASSEMBLY INFORMATION
   ***********************************************************




     OPTIONS BEING PROCESSED
   ***************************


  *Heading
  *Node
  *Element, type=C3D8
  *Nset, nset=ASSEMBLY_SE_SKIN-1__PICKEDSET2
  *Elset, elset=ASSEMBLY_SE_SKIN-1__PICKEDSET2
  *Node
  *Element, type=C3D8
  *Nset, nset=ASSEMBLY_ES_WALLS-1__PICKEDSET5
  *Elset, elset=ASSEMBLY_ES_WALLS-1__PICKEDSET5
  *Node
  *Element, type=C3D8
  *Nset, nset=ASSEMBLY_ES_FACE-1__PICKEDSET5
  *Elset, elset=ASSEMBLY_ES_FACE-1__PICKEDSET5
  *Node
  *Nset, nset=ASSEMBLY_SET-16
  *Nset, nset=ASSEMBLY__PICKEDSET46
  *Nset, nset=ASSEMBLY__PICKEDSET47
  *Nset, nset=ASSEMBLY__PICKEDSET49
  *Nset, nset=ASSEMBLY__PICKEDSET50
  *Elset, elset=ASSEMBLY_SET-16
  *Elset, elset=ASSEMBLY__PICKEDSET50
  *Elset, elset=ASSEMBLY___PICKEDSURF52_S2
  *Elset, elset=ASSEMBLY___PICKEDSURF55_S1
  *Elset, elset=ASSEMBLY___PICKEDSURF59_S1
  *Elset, elset=ASSEMBLY___PICKEDSURF59_S3
  *Elset, elset=ASSEMBLY___PICKEDSURF59_S4
  *Elset, elset=ASSEMBLY___PICKEDSURF59_S5
  *Elset, elset=ASSEMBLY___PICKEDSURF59_S6
  *Elset, elset=ASSEMBLY___PICKEDSURF61_S1
  *Elset, elset=ASSEMBLY___PICKEDSURF62_S1
  *material, name=RIGID_MAT
  *density
  *elastic
  *material, name=UMAT
  *density, dependencies=1

 ***WARNING: DENSITY HAS BEEN DEFINED AS A FUNCTION OF TEMPERATURE AND/OR FIELD 
             VARIABLES. FOR ALL ELEMENTS EXCEPT ACOUSTIC, HEAT TRANSFER, 
             COUPLED TEMPERATURE-DISPLACEMENT AND COUPLED THERMAL-ELECTRICAL 
             ELEMENTS THE DENSITY IS A FUNCTION OF THE INITIAL VALUES OF 
             TEMPERATURE AND FIELD VARIABLES. IT WILL NOT BE UPDATED IF 
             TEMPERATURES AND FIELD VARIABLES CHANGE DURING THE ANALYSIS.
  *depvar
  *userdefinedfield
  *usermaterial, constants=133
  *material, name=TEST_ISO_MAT
  *elastic
  *fluidbehavior, name=FLUID_PROP
  *fluiddensity
  *fluidbulkmodulus
  *solidsection, elset=ASSEMBLY_SE_SKIN-1__PICKEDSET2, material=UMAT
  *solidsection, elset=ASSEMBLY_ES_WALLS-1__PICKEDSET5, material=RIGID_MAT
  *solidsection, elset=ASSEMBLY_ES_FACE-1__PICKEDSET5, material=RIGID_MAT
  *solidsection, elset=ASSEMBLY_SE_SKIN-1__PICKEDSET2, material=UMAT
  *solidsection, elset=ASSEMBLY_ES_WALLS-1__PICKEDSET5, material=RIGID_MAT
  *solidsection, elset=ASSEMBLY_ES_FACE-1__PICKEDSET5, material=RIGID_MAT
  *rigidbody, refnode=ASSEMBLY__PICKEDSET49, elset=ASSEMBLY__PICKEDSET50
  *tie, name=ASSEMBLY_TIE_1-1, adjust=YES
  *tie, name=ASSEMBLY_TIE_2-1, adjust=YES
  *surface, type=ELEMENT, name=ASSEMBLY__PICKEDSURF52
  *surface, type=ELEMENT, name=ASSEMBLY__PICKEDSURF55
  *surface, type=ELEMENT, name=ASSEMBLY__PICKEDSURF59
  *surface, type=ELEMENT, name=ASSEMBLY__PICKEDSURF61
  *surface, type=ELEMENT, name=ASSEMBLY__PICKEDSURF62
  *rigidbody, refnode=ASSEMBLY__PICKEDSET49, elset=ASSEMBLY__PICKEDSET50
  *rigidbody, refnode=ASSEMBLY__PICKEDSET49, elset=ASSEMBLY__PICKEDSET50
  *rigidbody, refnode=ASSEMBLY__PICKEDSET49, elset=ASSEMBLY__PICKEDSET50
  *tie, name=ASSEMBLY_TIE_1-1, adjust=YES
  *tie, name=ASSEMBLY_TIE_2-1, adjust=YES
  *surface, type=ELEMENT, name=ASSEMBLY__PICKEDSURF52
  *surface, type=ELEMENT, name=ASSEMBLY__PICKEDSURF55
  *surface, type=ELEMENT, name=ASSEMBLY__PICKEDSURF59
  *surface, type=ELEMENT, name=ASSEMBLY__PICKEDSURF61
  *surface, type=ELEMENT, name=ASSEMBLY__PICKEDSURF62
  *surface, type=ELEMENT, name=ASSEMBLY__PICKEDSURF52
  *surface, type=ELEMENT, name=ASSEMBLY__PICKEDSURF55
  *surface, type=ELEMENT, name=ASSEMBLY__PICKEDSURF59
  *surface, type=ELEMENT, name=ASSEMBLY__PICKEDSURF61
  *surface, type=ELEMENT, name=ASSEMBLY__PICKEDSURF62
  *tie, name=ASSEMBLY_TIE_1-1, adjust=YES

 ***WARNING: OVERCONSTRAINT CHECKS: THE *TIE PAIR BETWEEN SURFACES 
             ASSEMBLY__PICKEDSURF52 AND ASSEMBLY__PICKEDSURF55 ATTEMPTS TO TIE 
             ONE DEFORMABLE AND ONE RIGID BODY. SINCE THE *TIE SLAVE SURFACE 
             BELONGS IN PART OR ENTIRELY TO THE RIGID BODY, THE NODES ON THIS 
             SURFACE WOULD BE OVERCONSTRAINED  BY THE *RIGID BODY AND *TIE 
             COMBINATION. THE SLAVE AND MASTER ARE SWITCHED SO THAT 
             OVERCONSTRAINTS ARE AVOIDED.
  *tie, name=ASSEMBLY_TIE_2-1, adjust=YES

 ***WARNING: NO CONSTRAINT IS FORMED FOR THE TIED PAIR (ASSEMBLY__PICKEDSURF61, 
             ASSEMBLY__PICKEDSURF62).  ALL THE SLAVE NODES ARE PART OF THE 
             MASTER SURFACE.
  *rigidbody, refnode=ASSEMBLY__PICKEDSET49, elset=ASSEMBLY__PICKEDSET50
  *tie, name=ASSEMBLY_TIE_1-1, adjust=YES
  *tie, name=ASSEMBLY_TIE_2-1, adjust=YES
  *fluidcavity, name=CAVITY, behavior=FLUID_PROP, refnode=ASSEMBLY__PICKEDSET46, surface=ASSEMBLY__PICKEDSURF59

          PROCESSING FLUID CAVITY:  CAVITY                                                                          
               CREATED ELEMENT SET:  FLUID_CAVITY                                                                    
               NUMBER OF FLUID ELEMENTS CREATED:       1344


  *rigidbody, refnode=ASSEMBLY__PICKEDSET49, elset=ASSEMBLY__PICKEDSET50
  *rigidbody, refnode=ASSEMBLY__PICKEDSET49, elset=ASSEMBLY__PICKEDSET50
  *fluidcavity, name=CAVITY, behavior=FLUID_PROP, refnode=ASSEMBLY__PICKEDSET46, surface=ASSEMBLY__PICKEDSURF59
  *boundary
  *boundary, op=NEW
  *boundary, op=NEW
  *boundary, op=NEW
  *boundary, op=NEW
  *boundary, op=NEW
  *boundary
  *tie, name=ASSEMBLY_TIE_1-1, adjust=YES

 ***WARNING: FOR *TIE PAIR (ASSEMBLY__PICKEDSURF55-ASSEMBLY__PICKEDSURF52), 
             ADJUSTED NODES WITH VERY SMALL ADJUSTMENTS WERE NOT PRINTED. 
             SPECIFY *PREPRINT,MODEL=YES FOR COMPLETE PRINTOUT.
  *tie, name=ASSEMBLY_TIE_2-1, adjust=YES

 ***WARNING: *TIE BETWEEN SURFACE PAIR 
             (ASSEMBLY__PICKEDSURF61,ASSEMBLY__PICKEDSURF62) IS REVERTED BACK 
             TO TYPE NODE-TO-SURFACE. THIS CASE MAY HAPPEN IF TYPE 
             SURFACE-TO-SURFACE CANNOT FIND NODES TO TIE TOGETHER OR IF DEFAULT 
             ACOUSTIC-STRUCTURAL TIE IS SPECIFIED INVOLVING SHELLS. PLEASE 
             CHECK THE SURFACE DEFINITIONS OR SPECIFY TYPE=SURFACE TO SURFACE 
             FOR ACOUSTIC-STRUCTURAL TIE.

 ***WARNING: FOR *TIE PAIR (ASSEMBLY__PICKEDSURF61-ASSEMBLY__PICKEDSURF62), 
             ADJUSTMENT WAS SPECIFIED BUT NO NODE WAS ADJUSTED MORE THAN THE 
             ADJUSTMENT DISTANCE = 2.22000E-16.
  *tie, name=ASSEMBLY_TIE_1-1, adjust=YES
  *tie, name=ASSEMBLY_TIE_2-1, adjust=YES
  *tie, name=ASSEMBLY_TIE_1-1, adjust=YES
  *tie, name=ASSEMBLY_TIE_2-1, adjust=YES
  *fluidcavity, name=CAVITY, behavior=FLUID_PROP, refnode=ASSEMBLY__PICKEDSET46, surface=ASSEMBLY__PICKEDSURF59

 ***WARNING: THE SURFACE ASSEMBLY__PICKEDSURF59 IS NOT COMPLETELY ENCLOSED. A 
             LIST OF ELEMENT WITH FREE EDGES ON THIS SURFACE IS GIVEN AS 
             FOLLOWS:
    Element
     Number      Instance Name

         1       ES_FACE-1                                                                       
         2       ES_FACE-1                                                                       
         3       ES_FACE-1                                                                       
         4       ES_FACE-1                                                                       
         5       ES_FACE-1                                                                       
         6       ES_FACE-1                                                                       
         7       ES_FACE-1                                                                       
         8       ES_FACE-1                                                                       
         9       ES_FACE-1                                                                       
        10       ES_FACE-1                                                                       
        11       ES_FACE-1                                                                       
        12       ES_FACE-1                                                                       
        13       ES_FACE-1                                                                       
        14       ES_FACE-1                                                                       
        15       ES_FACE-1                                                                       
        16       ES_FACE-1                                                                       
        17       ES_FACE-1                                                                       
        32       ES_FACE-1                                                                       
        33       ES_FACE-1                                                                       
        48       ES_FACE-1                                                                       
        49       ES_FACE-1                                                                       
        64       ES_FACE-1                                                                       
        65       ES_FACE-1                                                                       
        80       ES_FACE-1                                                                       
        81       ES_FACE-1                                                                       
        96       ES_FACE-1                                                                       
        97       ES_FACE-1                                                                       
       112       ES_FACE-1                                                                       
       113       ES_FACE-1                                                                       
       128       ES_FACE-1                                                                       
       129       ES_FACE-1                                                                       
       144       ES_FACE-1                                                                       
       145       ES_FACE-1                                                                       
       160       ES_FACE-1                                                                       
       161       ES_FACE-1                                                                       
       176       ES_FACE-1                                                                       
       177       ES_FACE-1                                                                       
       192       ES_FACE-1                                                                       
       193       ES_FACE-1                                                                       
       208       ES_FACE-1                                                                       
       209       ES_FACE-1                                                                       
       224       ES_FACE-1                                                                       
       225       ES_FACE-1                                                                       
       240       ES_FACE-1                                                                       
       241       ES_FACE-1                                                                       
       242       ES_FACE-1                                                                       
       243       ES_FACE-1                                                                       
       244       ES_FACE-1                                                                       
       245       ES_FACE-1                                                                       
       246       ES_FACE-1                                                                       
       247       ES_FACE-1                                                                       
       248       ES_FACE-1                                                                       
       249       ES_FACE-1                                                                       
       250       ES_FACE-1                                                                       
       251       ES_FACE-1                                                                       
       252       ES_FACE-1                                                                       
       253       ES_FACE-1                                                                       
       254       ES_FACE-1                                                                       
       255       ES_FACE-1                                                                       
       256       ES_FACE-1                                                                       
        11       ES_WALLS-1                                                                      
        13       ES_WALLS-1                                                                      
        16       ES_WALLS-1                                                                      
        24       ES_WALLS-1                                                                      
        25       ES_WALLS-1                                                                      
        28       ES_WALLS-1                                                                      
        34       ES_WALLS-1                                                                      
        39       ES_WALLS-1                                                                      
        42       ES_WALLS-1                                                                      
        46       ES_WALLS-1                                                                      
        51       ES_WALLS-1                                                                      
        54       ES_WALLS-1                                                                      
        58       ES_WALLS-1                                                                      
        60       ES_WALLS-1                                                                      
        61       ES_WALLS-1                                                                      
        62       ES_WALLS-1                                                                      
        63       ES_WALLS-1                                                                      
        64       ES_WALLS-1                                                                      
        65       ES_WALLS-1                                                                      
        68       ES_WALLS-1                                                                      
        70       ES_WALLS-1                                                                      
        71       ES_WALLS-1                                                                      
        74       ES_WALLS-1                                                                      
        75       ES_WALLS-1                                                                      
        78       ES_WALLS-1                                                                      
        79       ES_WALLS-1                                                                      
        82       ES_WALLS-1                                                                      
        85       ES_WALLS-1                                                                      
        86       ES_WALLS-1                                                                      
        89       ES_WALLS-1                                                                      
        90       ES_WALLS-1                                                                      
        93       ES_WALLS-1                                                                      
        94       ES_WALLS-1                                                                      
        97       ES_WALLS-1                                                                      
       102       ES_WALLS-1                                                                      
       103       ES_WALLS-1                                                                      
       104       ES_WALLS-1                                                                      
       105       ES_WALLS-1                                                                      
       106       ES_WALLS-1                                                                      
       107       ES_WALLS-1                                                                      
       110       ES_WALLS-1                                                                      
       112       ES_WALLS-1                                                                      
       113       ES_WALLS-1                                                                      
       114       ES_WALLS-1                                                                      
       115       ES_WALLS-1                                                                      
       116       ES_WALLS-1                                                                      
       117       ES_WALLS-1                                                                      
       120       ES_WALLS-1                                                                      
       122       ES_WALLS-1                                                                      
       124       ES_WALLS-1                                                                      
       125       ES_WALLS-1                                                                      
       127       ES_WALLS-1                                                                      
       129       ES_WALLS-1                                                                      
       131       ES_WALLS-1                                                                      
       132       ES_WALLS-1                                                                      
       133       ES_WALLS-1                                                                      
       135       ES_WALLS-1                                                                      
       136       ES_WALLS-1                                                                      
       137       ES_WALLS-1                                                                      
       138       ES_WALLS-1                                                                      
       139       ES_WALLS-1                                                                      
       141       ES_WALLS-1                                                                      
       142       ES_WALLS-1                                                                      
       143       ES_WALLS-1                                                                      
         1       SE_SKIN-1                                                                       
         2       SE_SKIN-1                                                                       
         3       SE_SKIN-1                                                                       
         4       SE_SKIN-1                                                                       
         5       SE_SKIN-1                                                                       
         6       SE_SKIN-1                                                                       
         7       SE_SKIN-1                                                                       
         8       SE_SKIN-1                                                                       
         9       SE_SKIN-1                                                                       
        10       SE_SKIN-1                                                                       
        11       SE_SKIN-1                                                                       
        12       SE_SKIN-1                                                                       
        13       SE_SKIN-1                                                                       
        14       SE_SKIN-1                                                                       
        15       SE_SKIN-1                                                                       
        16       SE_SKIN-1                                                                       
        17       SE_SKIN-1                                                                       
        18       SE_SKIN-1                                                                       
        19       SE_SKIN-1                                                                       
        20       SE_SKIN-1                                                                       
        21       SE_SKIN-1                                                                       
        22       SE_SKIN-1                                                                       
        23       SE_SKIN-1                                                                       
        24       SE_SKIN-1                                                                       
        25       SE_SKIN-1                                                                       
        26       SE_SKIN-1                                                                       
        27       SE_SKIN-1                                                                       
        28       SE_SKIN-1                                                                       
        29       SE_SKIN-1                                                                       
        30       SE_SKIN-1                                                                       
        31       SE_SKIN-1                                                                       
        32       SE_SKIN-1                                                                       
        33       SE_SKIN-1                                                                       
        64       SE_SKIN-1                                                                       
        65       SE_SKIN-1                                                                       
        96       SE_SKIN-1                                                                       
        97       SE_SKIN-1                                                                       
       128       SE_SKIN-1                                                                       
       129       SE_SKIN-1                                                                       
       160       SE_SKIN-1                                                                       
       161       SE_SKIN-1                                                                       
       192       SE_SKIN-1                                                                       
       193       SE_SKIN-1                                                                       
       224       SE_SKIN-1                                                                       
       225       SE_SKIN-1                                                                       
       256       SE_SKIN-1                                                                       
       257       SE_SKIN-1                                                                       
       288       SE_SKIN-1                                                                       
       289       SE_SKIN-1                                                                       
       320       SE_SKIN-1                                                                       
       321       SE_SKIN-1                                                                       
       352       SE_SKIN-1                                                                       
       353       SE_SKIN-1                                                                       
       384       SE_SKIN-1                                                                       
       385       SE_SKIN-1                                                                       
       416       SE_SKIN-1                                                                       
       417       SE_SKIN-1                                                                       
       448       SE_SKIN-1                                                                       
       449       SE_SKIN-1                                                                       
       480       SE_SKIN-1                                                                       
       481       SE_SKIN-1                                                                       
       512       SE_SKIN-1                                                                       
       513       SE_SKIN-1                                                                       
       544       SE_SKIN-1                                                                       
       545       SE_SKIN-1                                                                       
       576       SE_SKIN-1                                                                       
       577       SE_SKIN-1                                                                       
       608       SE_SKIN-1                                                                       
       609       SE_SKIN-1                                                                       
       640       SE_SKIN-1                                                                       
       641       SE_SKIN-1                                                                       
       672       SE_SKIN-1                                                                       
       673       SE_SKIN-1                                                                       
       704       SE_SKIN-1                                                                       
       705       SE_SKIN-1                                                                       
       736       SE_SKIN-1                                                                       
       737       SE_SKIN-1                                                                       
       768       SE_SKIN-1                                                                       
       769       SE_SKIN-1                                                                       
       800       SE_SKIN-1                                                                       
       801       SE_SKIN-1                                                                       
       832       SE_SKIN-1                                                                       
       833       SE_SKIN-1                                                                       
       864       SE_SKIN-1                                                                       
       865       SE_SKIN-1                                                                       
       896       SE_SKIN-1                                                                       
       897       SE_SKIN-1                                                                       
       928       SE_SKIN-1                                                                       
       929       SE_SKIN-1                                                                       
       960       SE_SKIN-1                                                                       
       961       SE_SKIN-1                                                                       
       992       SE_SKIN-1                                                                       
       993       SE_SKIN-1                                                                       
       994       SE_SKIN-1                                                                       
       995       SE_SKIN-1                                                                       
       996       SE_SKIN-1                                                                       
       997       SE_SKIN-1                                                                       
       998       SE_SKIN-1                                                                       
       999       SE_SKIN-1                                                                       
      1000       SE_SKIN-1                                                                       
      1001       SE_SKIN-1                                                                       
      1002       SE_SKIN-1                                                                       
      1003       SE_SKIN-1                                                                       
      1004       SE_SKIN-1                                                                       
      1005       SE_SKIN-1                                                                       
      1006       SE_SKIN-1                                                                       
      1007       SE_SKIN-1                                                                       
      1008       SE_SKIN-1                                                                       
      1009       SE_SKIN-1                                                                       
      1010       SE_SKIN-1                                                                       
      1011       SE_SKIN-1                                                                       
      1012       SE_SKIN-1                                                                       
      1013       SE_SKIN-1                                                                       
      1014       SE_SKIN-1                                                                       
      1015       SE_SKIN-1                                                                       
      1016       SE_SKIN-1                                                                       
      1017       SE_SKIN-1                                                                       
      1018       SE_SKIN-1                                                                       
      1019       SE_SKIN-1                                                                       
      1020       SE_SKIN-1                                                                       
      1021       SE_SKIN-1                                                                       
      1022       SE_SKIN-1                                                                       
      1023       SE_SKIN-1                                                                       
      1024       SE_SKIN-1                                                                       

 ***WARNING: SURFACE ASSEMBLY__PICKEDSURF59 IS NOT CONTINUOUS OR IT IS COMPOSED 
             OF TWO OR MORE REGIONS JOINED AT DISCRETE NODES.  THE NUMBER OF 
             DISCONNECTED REGIONS OR REGIONS JOINED AT DISCRETE NODES IS 3.  IF 
             THIS PROBLEM IS CAUSED BY THE INABILITY OF THE CODE TO TRIM THE 
             SURFACE PROPERLY, RESPECIFY THE SURFACE BY SPECIFYING BOTH THE 
             ELEMENT AND FACE NUMBER.  USE AVAILABLE POST PROCESSOR TO 
             VISUALIZE THIS SURFACE.
  *rigidbody, refnode=ASSEMBLY__PICKEDSET49, elset=ASSEMBLY__PICKEDSET50
  *surface, type=ELEMENT, name=ASSEMBLY__PICKEDSURF52
  *surface, type=ELEMENT, name=ASSEMBLY__PICKEDSURF55
  *surface, type=ELEMENT, name=ASSEMBLY__PICKEDSURF59
  *surface, type=ELEMENT, name=ASSEMBLY__PICKEDSURF61
  *surface, type=ELEMENT, name=ASSEMBLY__PICKEDSURF62
  *tie, name=ASSEMBLY_TIE_1-1, adjust=YES
  *tie, name=ASSEMBLY_TIE_2-1, adjust=YES
  *output, field
  *output, history, variable=PRESELECT
  *output, field
  *output, history, variable=PRESELECT
  *output, field
  *output, history, variable=PRESELECT
  *elementoutput, directions=YES
  *elementoutput, directions=YES
  *elementoutput, directions=YES
  *output, field
  *output, history, variable=PRESELECT
  *output, field
  *output, history, variable=PRESELECT
  *output, field
  *output, history, variable=PRESELECT
  *elementoutput, directions=YES
  *elementoutput, directions=YES
  *elementoutput, directions=YES
  *output, field
  *output, history, variable=PRESELECT
  *output, field
  *output, history, variable=PRESELECT
  *output, field
  *output, history, variable=PRESELECT
  *elementoutput, directions=YES
  *elementoutput, directions=YES
  *elementoutput, directions=YES
  *Step, name=Step-1, nlgeom=YES
  *output, field
  *output, history, variable=PRESELECT
  *Step, name=Step-2, nlgeom=YES
  *output, field
  *output, history, variable=PRESELECT
  *Step, name=Step-3, nlgeom=YES
  *output, field
  *output, history, variable=PRESELECT
  *Step, name=Step-1, nlgeom=YES
  *Step, name=Step-2, nlgeom=YES
  *Step, name=Step-3, nlgeom=YES

 ***WARNING: NODE SET ASSEMBLY__PICKEDSET47 HAS NO MEMBERS AND WILL BE IGNORED. 
              NODES DEFINED IN THIS SET MAY HAVE BEEN DELETED BECAUSE THEY WERE 
             NOT CONNECTED TO ANY ELEMENTS.
  *Step, name=Step-1, nlgeom=YES
  *static
  *boundary
  *output, field
  *nodeoutput
  *elementoutput, directions=YES
  *contactoutput
  *output, history, variable=PRESELECT
  *endstep

 ***WARNING: INTEGRATION AND SECTION POINT OUTPUT VARIABLES WILL NOT BE OUTPUT 
             FOR DEFORMABLE ELEMENTS THAT ARE DECLARED AS RIGID USING THE 
             *RIGID BODY OPTION

 ***WARNING: INTEGRATION AND SECTION POINT OUTPUT VARIABLES WILL NOT BE OUTPUT 
             FOR DEFORMABLE ELEMENTS THAT ARE DECLARED AS RIGID USING THE 
             *RIGID BODY OPTION

 ***WARNING: OUTPUT REQUEST EE IS NOT AVAILABLE FOR ELEMENT TYPE F3D4

 ***WARNING: OUTPUT REQUEST LE IS NOT AVAILABLE FOR ELEMENT TYPE F3D4

 ***WARNING: OUTPUT REQUEST PE IS NOT AVAILABLE FOR ELEMENT TYPE F3D4

 ***WARNING: OUTPUT REQUEST PEEQ IS NOT AVAILABLE FOR ELEMENT TYPE F3D4

 ***WARNING: OUTPUT REQUEST PEMAG IS NOT AVAILABLE FOR ELEMENT TYPE F3D4

 ***WARNING: OUTPUT REQUEST S IS NOT AVAILABLE FOR ELEMENT TYPE F3D4

 ***WARNING: OUTPUT REQUEST EE IS NOT AVAILABLE FOR ELEMENT TYPE F3D4

 ***WARNING: OUTPUT REQUEST LE IS NOT AVAILABLE FOR ELEMENT TYPE F3D4

 ***WARNING: OUTPUT REQUEST PE IS NOT AVAILABLE FOR ELEMENT TYPE F3D4

 ***WARNING: OUTPUT REQUEST PEEQ IS NOT AVAILABLE FOR ELEMENT TYPE F3D4

 ***WARNING: OUTPUT REQUEST PEMAG IS NOT AVAILABLE FOR ELEMENT TYPE F3D4

 ***WARNING: OUTPUT REQUEST S IS NOT AVAILABLE FOR ELEMENT TYPE F3D4

 ***WARNING: OUTPUT REQUEST EE IS NOT AVAILABLE FOR ELEMENT TYPE F3D4

 ***WARNING: OUTPUT REQUEST LE IS NOT AVAILABLE FOR ELEMENT TYPE F3D4

 ***WARNING: OUTPUT REQUEST PE IS NOT AVAILABLE FOR ELEMENT TYPE F3D4

 ***WARNING: OUTPUT REQUEST PEEQ IS NOT AVAILABLE FOR ELEMENT TYPE F3D4

 ***WARNING: OUTPUT REQUEST PEMAG IS NOT AVAILABLE FOR ELEMENT TYPE F3D4

 ***WARNING: OUTPUT REQUEST S IS NOT AVAILABLE FOR ELEMENT TYPE F3D4
  *Step, name=Step-2, nlgeom=YES
  *static
  *boundary, op=NEW
  *boundary, op=NEW
  *output, field
  *nodeoutput
  *elementoutput, directions=YES
  *contactoutput
  *output, history, variable=PRESELECT
  *endstep

 ***WARNING: INTEGRATION AND SECTION POINT OUTPUT VARIABLES WILL NOT BE OUTPUT 
             FOR DEFORMABLE ELEMENTS THAT ARE DECLARED AS RIGID USING THE 
             *RIGID BODY OPTION

 ***WARNING: INTEGRATION AND SECTION POINT OUTPUT VARIABLES WILL NOT BE OUTPUT 
             FOR DEFORMABLE ELEMENTS THAT ARE DECLARED AS RIGID USING THE 
             *RIGID BODY OPTION

 ***WARNING: OUTPUT REQUEST EE IS NOT AVAILABLE FOR ELEMENT TYPE F3D4

 ***WARNING: OUTPUT REQUEST LE IS NOT AVAILABLE FOR ELEMENT TYPE F3D4

 ***WARNING: OUTPUT REQUEST PE IS NOT AVAILABLE FOR ELEMENT TYPE F3D4

 ***WARNING: OUTPUT REQUEST PEEQ IS NOT AVAILABLE FOR ELEMENT TYPE F3D4

 ***WARNING: OUTPUT REQUEST PEMAG IS NOT AVAILABLE FOR ELEMENT TYPE F3D4

 ***WARNING: OUTPUT REQUEST S IS NOT AVAILABLE FOR ELEMENT TYPE F3D4

 ***WARNING: OUTPUT REQUEST EE IS NOT AVAILABLE FOR ELEMENT TYPE F3D4

 ***WARNING: OUTPUT REQUEST LE IS NOT AVAILABLE FOR ELEMENT TYPE F3D4

 ***WARNING: OUTPUT REQUEST PE IS NOT AVAILABLE FOR ELEMENT TYPE F3D4

 ***WARNING: OUTPUT REQUEST PEEQ IS NOT AVAILABLE FOR ELEMENT TYPE F3D4

 ***WARNING: OUTPUT REQUEST PEMAG IS NOT AVAILABLE FOR ELEMENT TYPE F3D4

 ***WARNING: OUTPUT REQUEST S IS NOT AVAILABLE FOR ELEMENT TYPE F3D4

 ***WARNING: OUTPUT REQUEST EE IS NOT AVAILABLE FOR ELEMENT TYPE F3D4

 ***WARNING: OUTPUT REQUEST LE IS NOT AVAILABLE FOR ELEMENT TYPE F3D4

 ***WARNING: OUTPUT REQUEST PE IS NOT AVAILABLE FOR ELEMENT TYPE F3D4

 ***WARNING: OUTPUT REQUEST PEEQ IS NOT AVAILABLE FOR ELEMENT TYPE F3D4

 ***WARNING: OUTPUT REQUEST PEMAG IS NOT AVAILABLE FOR ELEMENT TYPE F3D4

 ***WARNING: OUTPUT REQUEST S IS NOT AVAILABLE FOR ELEMENT TYPE F3D4
  *Step, name=Step-3, nlgeom=YES
  *static
  *boundary, op=NEW
  *boundary, op=NEW
  *boundary, op=NEW
  *output, field
  *nodeoutput
  *elementoutput, directions=YES
  *contactoutput
  *output, history, variable=PRESELECT
  *endstep

 ***WARNING: INTEGRATION AND SECTION POINT OUTPUT VARIABLES WILL NOT BE OUTPUT 
             FOR DEFORMABLE ELEMENTS THAT ARE DECLARED AS RIGID USING THE 
             *RIGID BODY OPTION

 ***WARNING: INTEGRATION AND SECTION POINT OUTPUT VARIABLES WILL NOT BE OUTPUT 
             FOR DEFORMABLE ELEMENTS THAT ARE DECLARED AS RIGID USING THE 
             *RIGID BODY OPTION

 ***WARNING: OUTPUT REQUEST EE IS NOT AVAILABLE FOR ELEMENT TYPE F3D4

 ***WARNING: OUTPUT REQUEST LE IS NOT AVAILABLE FOR ELEMENT TYPE F3D4

 ***WARNING: OUTPUT REQUEST PE IS NOT AVAILABLE FOR ELEMENT TYPE F3D4

 ***WARNING: OUTPUT REQUEST PEEQ IS NOT AVAILABLE FOR ELEMENT TYPE F3D4

 ***WARNING: OUTPUT REQUEST PEMAG IS NOT AVAILABLE FOR ELEMENT TYPE F3D4

 ***WARNING: OUTPUT REQUEST S IS NOT AVAILABLE FOR ELEMENT TYPE F3D4

 ***WARNING: OUTPUT REQUEST EE IS NOT AVAILABLE FOR ELEMENT TYPE F3D4

 ***WARNING: OUTPUT REQUEST LE IS NOT AVAILABLE FOR ELEMENT TYPE F3D4

 ***WARNING: OUTPUT REQUEST PE IS NOT AVAILABLE FOR ELEMENT TYPE F3D4

 ***WARNING: OUTPUT REQUEST PEEQ IS NOT AVAILABLE FOR ELEMENT TYPE F3D4

 ***WARNING: OUTPUT REQUEST PEMAG IS NOT AVAILABLE FOR ELEMENT TYPE F3D4

 ***WARNING: OUTPUT REQUEST S IS NOT AVAILABLE FOR ELEMENT TYPE F3D4

 ***WARNING: OUTPUT REQUEST EE IS NOT AVAILABLE FOR ELEMENT TYPE F3D4

 ***WARNING: OUTPUT REQUEST LE IS NOT AVAILABLE FOR ELEMENT TYPE F3D4

 ***WARNING: OUTPUT REQUEST PE IS NOT AVAILABLE FOR ELEMENT TYPE F3D4

 ***WARNING: OUTPUT REQUEST PEEQ IS NOT AVAILABLE FOR ELEMENT TYPE F3D4

 ***WARNING: OUTPUT REQUEST PEMAG IS NOT AVAILABLE FOR ELEMENT TYPE F3D4

 ***WARNING: OUTPUT REQUEST S IS NOT AVAILABLE FOR ELEMENT TYPE F3D4
  *Step, name=Step-1, nlgeom=YES
  *static
  *boundary
  *endstep

 ***WARNING: OUTPUT REQUEST CF HAS BEEN REMOVED AS THERE ARE NO APPLICABLE 
             LOADS IN THIS STEP
  *Step, name=Step-2, nlgeom=YES
  *static
  *boundary, op=NEW
  *boundary, op=NEW
  *endstep

 ***WARNING: OUTPUT REQUEST CF HAS BEEN REMOVED AS THERE ARE NO APPLICABLE 
             LOADS IN THIS STEP
  *Step, name=Step-3, nlgeom=YES
  *static
  *boundary, op=NEW
  *boundary, op=NEW
  *boundary, op=NEW
  *endstep

 ***WARNING: OVERCONSTRAINT CHECKS: NODE 442 INSTANCE ES_FACE-1 IS A DEPENDENT 
             NODE IN A *RIGID BODY OPTION AND HAS A SPECIFIED BOUNDARY 
             CONDITION. THE BOUNDARY CONDITIONS AT THIS NODE WILL BE 
             TRANSFERRED TO THE RIGID BODY REFERENCE  NODE 4 (ASSEMBLY). THE 
             BOUNDARY CONDITIONS AT NODE 442 INSTANCE ES_FACE-1 WILL BE IGNORED.

 ***WARNING: OUTPUT REQUEST CF HAS BEEN REMOVED AS THERE ARE NO APPLICABLE 
             LOADS IN THIS STEP

 ***WARNING: 2 nodes associated with rigid bodies have boundary conditions 
             prescribed at nodes other than the reference node. These boundary 
             conditions will be transferred to the associated rigid body 
             reference node.The reference nodes and the dependent nodes have 
             been identified in node set WarnNodeOverconBoundRB.

 ***WARNING: DEGREE OF FREEDOM 1 HAS BEEN ELIMINATED AT NODE 442 INSTANCE 
             ES_FACE-1 BOUNDARY CONDITION TYPE ENCASTRE MAY NOT BE APPLIED AT 
             THIS NODE

 ***WARNING: DEGREE OF FREEDOM 2 HAS BEEN ELIMINATED AT NODE 442 INSTANCE 
             ES_FACE-1 BOUNDARY CONDITION TYPE ENCASTRE MAY NOT BE APPLIED AT 
             THIS NODE

 ***WARNING: DEGREE OF FREEDOM 3 HAS BEEN ELIMINATED AT NODE 442 INSTANCE 
             ES_FACE-1 BOUNDARY CONDITION TYPE ENCASTRE MAY NOT BE APPLIED AT 
             THIS NODE

 ***WARNING: DEGREE OF FREEDOM 1 HAS BEEN ELIMINATED AT NODE 443 INSTANCE 
             ES_FACE-1 BOUNDARY CONDITION TYPE ENCASTRE MAY NOT BE APPLIED AT 
             THIS NODE

 ***WARNING: DEGREE OF FREEDOM 2 HAS BEEN ELIMINATED AT NODE 443 INSTANCE 
             ES_FACE-1 BOUNDARY CONDITION TYPE ENCASTRE MAY NOT BE APPLIED AT 
             THIS NODE

 ***WARNING: DEGREE OF FREEDOM 3 HAS BEEN ELIMINATED AT NODE 443 INSTANCE 
             ES_FACE-1 BOUNDARY CONDITION TYPE ENCASTRE MAY NOT BE APPLIED AT 
             THIS NODE

 ***WARNING: DEGREE OF FREEDOM 1 HAS BEEN ELIMINATED AT NODE 444 INSTANCE 
             ES_FACE-1 BOUNDARY CONDITION TYPE ENCASTRE MAY NOT BE APPLIED AT 
             THIS NODE

 ***WARNING: DEGREE OF FREEDOM 2 HAS BEEN ELIMINATED AT NODE 444 INSTANCE 
             ES_FACE-1 BOUNDARY CONDITION TYPE ENCASTRE MAY NOT BE APPLIED AT 
             THIS NODE

 ***WARNING: DEGREE OF FREEDOM 3 HAS BEEN ELIMINATED AT NODE 444 INSTANCE 
             ES_FACE-1 BOUNDARY CONDITION TYPE ENCASTRE MAY NOT BE APPLIED AT 
             THIS NODE

 ***WARNING: DEGREE OF FREEDOM 1 HAS BEEN ELIMINATED AT NODE 445 INSTANCE 
             ES_FACE-1 BOUNDARY CONDITION TYPE ENCASTRE MAY NOT BE APPLIED AT 
             THIS NODE

 ***WARNING: DEGREE OF FREEDOM 2 HAS BEEN ELIMINATED AT NODE 445 INSTANCE 
             ES_FACE-1 BOUNDARY CONDITION TYPE ENCASTRE MAY NOT BE APPLIED AT 
             THIS NODE

 ***WARNING: DEGREE OF FREEDOM 3 HAS BEEN ELIMINATED AT NODE 445 INSTANCE 
             ES_FACE-1 BOUNDARY CONDITION TYPE ENCASTRE MAY NOT BE APPLIED AT 
             THIS NODE

 ***WARNING: DEGREE OF FREEDOM 1 HAS BEEN ELIMINATED AT NODE 446 INSTANCE 
             ES_FACE-1 BOUNDARY CONDITION TYPE ENCASTRE MAY NOT BE APPLIED AT 
             THIS NODE

 ***WARNING: DEGREE OF FREEDOM 2 HAS BEEN ELIMINATED AT NODE 446 INSTANCE 
             ES_FACE-1 BOUNDARY CONDITION TYPE ENCASTRE MAY NOT BE APPLIED AT 
             THIS NODE

 ***WARNING: DEGREE OF FREEDOM 3 HAS BEEN ELIMINATED AT NODE 446 INSTANCE 
             ES_FACE-1 BOUNDARY CONDITION TYPE ENCASTRE MAY NOT BE APPLIED AT 
             THIS NODE

 ***WARNING: DEGREE OF FREEDOM 1 HAS BEEN ELIMINATED AT NODE 447 INSTANCE 
             ES_FACE-1 BOUNDARY CONDITION TYPE ENCASTRE MAY NOT BE APPLIED AT 
             THIS NODE

 ***WARNING: DEGREE OF FREEDOM 2 HAS BEEN ELIMINATED AT NODE 447 INSTANCE 
             ES_FACE-1 BOUNDARY CONDITION TYPE ENCASTRE MAY NOT BE APPLIED AT 
             THIS NODE

 ***WARNING: DEGREE OF FREEDOM 3 HAS BEEN ELIMINATED AT NODE 447 INSTANCE 
             ES_FACE-1 BOUNDARY CONDITION TYPE ENCASTRE MAY NOT BE APPLIED AT 
             THIS NODE

 ***WARNING: DEGREE OF FREEDOM 1 HAS BEEN ELIMINATED AT NODE 448 INSTANCE 
             ES_FACE-1 BOUNDARY CONDITION TYPE ENCASTRE MAY NOT BE APPLIED AT 
             THIS NODE

 ***WARNING: DEGREE OF FREEDOM 2 HAS BEEN ELIMINATED AT NODE 448 INSTANCE 
             ES_FACE-1 BOUNDARY CONDITION TYPE ENCASTRE MAY NOT BE APPLIED AT 
             THIS NODE

 ***WARNING: DEGREE OF FREEDOM 3 HAS BEEN ELIMINATED AT NODE 448 INSTANCE 
             ES_FACE-1 BOUNDARY CONDITION TYPE ENCASTRE MAY NOT BE APPLIED AT 
             THIS NODE

 ***WARNING: DEGREE OF FREEDOM 1 HAS BEEN ELIMINATED AT NODE 449 INSTANCE 
             ES_FACE-1 BOUNDARY CONDITION TYPE ENCASTRE MAY NOT BE APPLIED AT 
             THIS NODE

 ***WARNING: DEGREE OF FREEDOM 2 HAS BEEN ELIMINATED AT NODE 449 INSTANCE 
             ES_FACE-1 BOUNDARY CONDITION TYPE ENCASTRE MAY NOT BE APPLIED AT 
             THIS NODE

 ***WARNING: DEGREE OF FREEDOM 3 HAS BEEN ELIMINATED AT NODE 449 INSTANCE 
             ES_FACE-1 BOUNDARY CONDITION TYPE ENCASTRE MAY NOT BE APPLIED AT 
             THIS NODE

 ***WARNING: DEGREE OF FREEDOM 1 HAS BEEN ELIMINATED AT NODE 450 INSTANCE 
             ES_FACE-1 BOUNDARY CONDITION TYPE ENCASTRE MAY NOT BE APPLIED AT 
             THIS NODE

 ***WARNING: DEGREE OF FREEDOM 2 HAS BEEN ELIMINATED AT NODE 450 INSTANCE 
             ES_FACE-1 BOUNDARY CONDITION TYPE ENCASTRE MAY NOT BE APPLIED AT 
             THIS NODE

 ***WARNING: DEGREE OF FREEDOM 3 HAS BEEN ELIMINATED AT NODE 450 INSTANCE 
             ES_FACE-1 BOUNDARY CONDITION TYPE ENCASTRE MAY NOT BE APPLIED AT 
             THIS NODE

 ***WARNING: DEGREE OF FREEDOM 1 HAS BEEN ELIMINATED AT NODE 451 INSTANCE 
             ES_FACE-1 BOUNDARY CONDITION TYPE ENCASTRE MAY NOT BE APPLIED AT 
             THIS NODE

 ***WARNING: DEGREE OF FREEDOM 2 HAS BEEN ELIMINATED AT NODE 451 INSTANCE 
             ES_FACE-1 BOUNDARY CONDITION TYPE ENCASTRE MAY NOT BE APPLIED AT 
             THIS NODE

 ***WARNING: DEGREE OF FREEDOM 3 HAS BEEN ELIMINATED AT NODE 451 INSTANCE 
             ES_FACE-1 BOUNDARY CONDITION TYPE ENCASTRE MAY NOT BE APPLIED AT 
             THIS NODE

 ***WARNING: DEGREE OF FREEDOM 1 HAS BEEN ELIMINATED AT NODE 452 INSTANCE 
             ES_FACE-1 BOUNDARY CONDITION TYPE ENCASTRE MAY NOT BE APPLIED AT 
             THIS NODE

 ***WARNING: DEGREE OF FREEDOM 2 HAS BEEN ELIMINATED AT NODE 452 INSTANCE 
             ES_FACE-1 BOUNDARY CONDITION TYPE ENCASTRE MAY NOT BE APPLIED AT 
             THIS NODE

 ***WARNING: DEGREE OF FREEDOM 3 HAS BEEN ELIMINATED AT NODE 452 INSTANCE 
             ES_FACE-1 BOUNDARY CONDITION TYPE ENCASTRE MAY NOT BE APPLIED AT 
             THIS NODE

 ***WARNING: DEGREE OF FREEDOM 1 HAS BEEN ELIMINATED AT NODE 453 INSTANCE 
             ES_FACE-1 BOUNDARY CONDITION TYPE ENCASTRE MAY NOT BE APPLIED AT 
             THIS NODE

 ***WARNING: DEGREE OF FREEDOM 2 HAS BEEN ELIMINATED AT NODE 453 INSTANCE 
             ES_FACE-1 BOUNDARY CONDITION TYPE ENCASTRE MAY NOT BE APPLIED AT 
             THIS NODE

 ***WARNING: DEGREE OF FREEDOM 3 HAS BEEN ELIMINATED AT NODE 453 INSTANCE 
             ES_FACE-1 BOUNDARY CONDITION TYPE ENCASTRE MAY NOT BE APPLIED AT 
             THIS NODE

 ***WARNING: DEGREE OF FREEDOM 1 HAS BEEN ELIMINATED AT NODE 454 INSTANCE 
             ES_FACE-1 BOUNDARY CONDITION TYPE ENCASTRE MAY NOT BE APPLIED AT 
             THIS NODE

 ***WARNING: DEGREE OF FREEDOM 2 HAS BEEN ELIMINATED AT NODE 454 INSTANCE 
             ES_FACE-1 BOUNDARY CONDITION TYPE ENCASTRE MAY NOT BE APPLIED AT 
             THIS NODE

 ***WARNING: DEGREE OF FREEDOM 3 HAS BEEN ELIMINATED AT NODE 454 INSTANCE 
             ES_FACE-1 BOUNDARY CONDITION TYPE ENCASTRE MAY NOT BE APPLIED AT 
             THIS NODE

 ***WARNING: DEGREE OF FREEDOM 1 HAS BEEN ELIMINATED AT NODE 455 INSTANCE 
             ES_FACE-1 BOUNDARY CONDITION TYPE ENCASTRE MAY NOT BE APPLIED AT 
             THIS NODE

 ***WARNING: DEGREE OF FREEDOM 2 HAS BEEN ELIMINATED AT NODE 455 INSTANCE 
             ES_FACE-1 BOUNDARY CONDITION TYPE ENCASTRE MAY NOT BE APPLIED AT 
             THIS NODE

 ***WARNING: DEGREE OF FREEDOM 3 HAS BEEN ELIMINATED AT NODE 455 INSTANCE 
             ES_FACE-1 BOUNDARY CONDITION TYPE ENCASTRE MAY NOT BE APPLIED AT 
             THIS NODE

 ***WARNING: DEGREE OF FREEDOM 1 HAS BEEN ELIMINATED AT NODE 456 INSTANCE 
             ES_FACE-1 BOUNDARY CONDITION TYPE ENCASTRE MAY NOT BE APPLIED AT 
             THIS NODE

 ***WARNING: DEGREE OF FREEDOM 2 HAS BEEN ELIMINATED AT NODE 456 INSTANCE 
             ES_FACE-1 BOUNDARY CONDITION TYPE ENCASTRE MAY NOT BE APPLIED AT 
             THIS NODE

 ***WARNING: DEGREE OF FREEDOM 3 HAS BEEN ELIMINATED AT NODE 456 INSTANCE 
             ES_FACE-1 BOUNDARY CONDITION TYPE ENCASTRE MAY NOT BE APPLIED AT 
             THIS NODE

 ***WARNING: DEGREE OF FREEDOM 1 HAS BEEN ELIMINATED AT NODE 457 INSTANCE 
             ES_FACE-1 BOUNDARY CONDITION TYPE ENCASTRE MAY NOT BE APPLIED AT 
             THIS NODE

 ***WARNING: DEGREE OF FREEDOM 2 HAS BEEN ELIMINATED AT NODE 457 INSTANCE 
             ES_FACE-1 BOUNDARY CONDITION TYPE ENCASTRE MAY NOT BE APPLIED AT 
             THIS NODE

 ***WARNING: DEGREE OF FREEDOM 3 HAS BEEN ELIMINATED AT NODE 457 INSTANCE 
             ES_FACE-1 BOUNDARY CONDITION TYPE ENCASTRE MAY NOT BE APPLIED AT 
             THIS NODE

 ***WARNING: DEGREE OF FREEDOM 1 HAS BEEN ELIMINATED AT NODE 458 INSTANCE 
             ES_FACE-1 BOUNDARY CONDITION TYPE ENCASTRE MAY NOT BE APPLIED AT 
             THIS NODE

 ***WARNING: DEGREE OF FREEDOM 2 HAS BEEN ELIMINATED AT NODE 458 INSTANCE 
             ES_FACE-1 BOUNDARY CONDITION TYPE ENCASTRE MAY NOT BE APPLIED AT 
             THIS NODE

 ***WARNING: DEGREE OF FREEDOM 3 HAS BEEN ELIMINATED AT NODE 458 INSTANCE 
             ES_FACE-1 BOUNDARY CONDITION TYPE ENCASTRE MAY NOT BE APPLIED AT 
             THIS NODE

 ***WARNING: DEGREE OF FREEDOM 1 HAS BEEN ELIMINATED AT NODE 459 INSTANCE 
             ES_FACE-1 BOUNDARY CONDITION TYPE ENCASTRE MAY NOT BE APPLIED AT 
             THIS NODE

 ***WARNING: DEGREE OF FREEDOM 2 HAS BEEN ELIMINATED AT NODE 459 INSTANCE 
             ES_FACE-1 BOUNDARY CONDITION TYPE ENCASTRE MAY NOT BE APPLIED AT 
             THIS NODE

 ***WARNING: DEGREE OF FREEDOM 3 HAS BEEN ELIMINATED AT NODE 459 INSTANCE 
             ES_FACE-1 BOUNDARY CONDITION TYPE ENCASTRE MAY NOT BE APPLIED AT 
             THIS NODE

 ***WARNING: DEGREE OF FREEDOM 1 HAS BEEN ELIMINATED AT NODE 460 INSTANCE 
             ES_FACE-1 BOUNDARY CONDITION TYPE ENCASTRE MAY NOT BE APPLIED AT 
             THIS NODE

 ***WARNING: DEGREE OF FREEDOM 2 HAS BEEN ELIMINATED AT NODE 460 INSTANCE 
             ES_FACE-1 BOUNDARY CONDITION TYPE ENCASTRE MAY NOT BE APPLIED AT 
             THIS NODE

 ***WARNING: DEGREE OF FREEDOM 3 HAS BEEN ELIMINATED AT NODE 460 INSTANCE 
             ES_FACE-1 BOUNDARY CONDITION TYPE ENCASTRE MAY NOT BE APPLIED AT 
             THIS NODE

 ***WARNING: DEGREE OF FREEDOM 1 HAS BEEN ELIMINATED AT NODE 461 INSTANCE 
             ES_FACE-1 BOUNDARY CONDITION TYPE ENCASTRE MAY NOT BE APPLIED AT 
             THIS NODE

 ***WARNING: DEGREE OF FREEDOM 2 HAS BEEN ELIMINATED AT NODE 461 INSTANCE 
             ES_FACE-1 BOUNDARY CONDITION TYPE ENCASTRE MAY NOT BE APPLIED AT 
             THIS NODE

 ***WARNING: DEGREE OF FREEDOM 3 HAS BEEN ELIMINATED AT NODE 461 INSTANCE 
             ES_FACE-1 BOUNDARY CONDITION TYPE ENCASTRE MAY NOT BE APPLIED AT 
             THIS NODE

 ***WARNING: DEGREE OF FREEDOM 1 HAS BEEN ELIMINATED AT NODE 462 INSTANCE 
             ES_FACE-1 BOUNDARY CONDITION TYPE ENCASTRE MAY NOT BE APPLIED AT 
             THIS NODE

 ***WARNING: DEGREE OF FREEDOM 2 HAS BEEN ELIMINATED AT NODE 462 INSTANCE 
             ES_FACE-1 BOUNDARY CONDITION TYPE ENCASTRE MAY NOT BE APPLIED AT 
             THIS NODE

 ***WARNING: DEGREE OF FREEDOM 3 HAS BEEN ELIMINATED AT NODE 462 INSTANCE 
             ES_FACE-1 BOUNDARY CONDITION TYPE ENCASTRE MAY NOT BE APPLIED AT 
             THIS NODE

 ***WARNING: DEGREE OF FREEDOM 1 HAS BEEN ELIMINATED AT NODE 463 INSTANCE 
             ES_FACE-1 BOUNDARY CONDITION TYPE ENCASTRE MAY NOT BE APPLIED AT 
             THIS NODE

 ***WARNING: DEGREE OF FREEDOM 2 HAS BEEN ELIMINATED AT NODE 463 INSTANCE 
             ES_FACE-1 BOUNDARY CONDITION TYPE ENCASTRE MAY NOT BE APPLIED AT 
             THIS NODE

 ***WARNING: DEGREE OF FREEDOM 3 HAS BEEN ELIMINATED AT NODE 463 INSTANCE 
             ES_FACE-1 BOUNDARY CONDITION TYPE ENCASTRE MAY NOT BE APPLIED AT 
             THIS NODE

 ***WARNING: DEGREE OF FREEDOM 1 HAS BEEN ELIMINATED AT NODE 464 INSTANCE 
             ES_FACE-1 BOUNDARY CONDITION TYPE ENCASTRE MAY NOT BE APPLIED AT 
             THIS NODE

 ***WARNING: DEGREE OF FREEDOM 2 HAS BEEN ELIMINATED AT NODE 464 INSTANCE 
             ES_FACE-1 BOUNDARY CONDITION TYPE ENCASTRE MAY NOT BE APPLIED AT 
             THIS NODE

 ***WARNING: DEGREE OF FREEDOM 3 HAS BEEN ELIMINATED AT NODE 464 INSTANCE 
             ES_FACE-1 BOUNDARY CONDITION TYPE ENCASTRE MAY NOT BE APPLIED AT 
             THIS NODE

 ***WARNING: DEGREE OF FREEDOM 1 HAS BEEN ELIMINATED AT NODE 465 INSTANCE 
             ES_FACE-1 BOUNDARY CONDITION TYPE ENCASTRE MAY NOT BE APPLIED AT 
             THIS NODE

 ***WARNING: DEGREE OF FREEDOM 2 HAS BEEN ELIMINATED AT NODE 465 INSTANCE 
             ES_FACE-1 BOUNDARY CONDITION TYPE ENCASTRE MAY NOT BE APPLIED AT 
             THIS NODE

 ***WARNING: DEGREE OF FREEDOM 3 HAS BEEN ELIMINATED AT NODE 465 INSTANCE 
             ES_FACE-1 BOUNDARY CONDITION TYPE ENCASTRE MAY NOT BE APPLIED AT 
             THIS NODE

 ***WARNING: DEGREE OF FREEDOM 1 HAS BEEN ELIMINATED AT NODE 466 INSTANCE 
             ES_FACE-1 BOUNDARY CONDITION TYPE ENCASTRE MAY NOT BE APPLIED AT 
             THIS NODE

 ***WARNING: DEGREE OF FREEDOM 2 HAS BEEN ELIMINATED AT NODE 466 INSTANCE 
             ES_FACE-1 BOUNDARY CONDITION TYPE ENCASTRE MAY NOT BE APPLIED AT 
             THIS NODE

 ***WARNING: DEGREE OF FREEDOM 3 HAS BEEN ELIMINATED AT NODE 466 INSTANCE 
             ES_FACE-1 BOUNDARY CONDITION TYPE ENCASTRE MAY NOT BE APPLIED AT 
             THIS NODE

 ***WARNING: DEGREE OF FREEDOM 1 HAS BEEN ELIMINATED AT NODE 467 INSTANCE 
             ES_FACE-1 BOUNDARY CONDITION TYPE ENCASTRE MAY NOT BE APPLIED AT 
             THIS NODE

 ***WARNING: DEGREE OF FREEDOM 2 HAS BEEN ELIMINATED AT NODE 467 INSTANCE 
             ES_FACE-1 BOUNDARY CONDITION TYPE ENCASTRE MAY NOT BE APPLIED AT 
             THIS NODE

 ***WARNING: DEGREE OF FREEDOM 3 HAS BEEN ELIMINATED AT NODE 467 INSTANCE 
             ES_FACE-1 BOUNDARY CONDITION TYPE ENCASTRE MAY NOT BE APPLIED AT 
             THIS NODE

 ***WARNING: DEGREE OF FREEDOM 1 HAS BEEN ELIMINATED AT NODE 468 INSTANCE 
             ES_FACE-1 BOUNDARY CONDITION TYPE ENCASTRE MAY NOT BE APPLIED AT 
             THIS NODE

 ***WARNING: DEGREE OF FREEDOM 2 HAS BEEN ELIMINATED AT NODE 468 INSTANCE 
             ES_FACE-1 BOUNDARY CONDITION TYPE ENCASTRE MAY NOT BE APPLIED AT 
             THIS NODE

 ***WARNING: DEGREE OF FREEDOM 3 HAS BEEN ELIMINATED AT NODE 468 INSTANCE 
             ES_FACE-1 BOUNDARY CONDITION TYPE ENCASTRE MAY NOT BE APPLIED AT 
             THIS NODE

 ***WARNING: DEGREE OF FREEDOM 1 HAS BEEN ELIMINATED AT NODE 469 INSTANCE 
             ES_FACE-1 BOUNDARY CONDITION TYPE ENCASTRE MAY NOT BE APPLIED AT 
             THIS NODE

 ***WARNING: DEGREE OF FREEDOM 2 HAS BEEN ELIMINATED AT NODE 469 INSTANCE 
             ES_FACE-1 BOUNDARY CONDITION TYPE ENCASTRE MAY NOT BE APPLIED AT 
             THIS NODE

 ***WARNING: DEGREE OF FREEDOM 3 HAS BEEN ELIMINATED AT NODE 469 INSTANCE 
             ES_FACE-1 BOUNDARY CONDITION TYPE ENCASTRE MAY NOT BE APPLIED AT 
             THIS NODE

 ***WARNING: DEGREE OF FREEDOM 1 HAS BEEN ELIMINATED AT NODE 470 INSTANCE 
             ES_FACE-1 BOUNDARY CONDITION TYPE ENCASTRE MAY NOT BE APPLIED AT 
             THIS NODE

 ***WARNING: DEGREE OF FREEDOM 2 HAS BEEN ELIMINATED AT NODE 470 INSTANCE 
             ES_FACE-1 BOUNDARY CONDITION TYPE ENCASTRE MAY NOT BE APPLIED AT 
             THIS NODE

 ***WARNING: DEGREE OF FREEDOM 3 HAS BEEN ELIMINATED AT NODE 470 INSTANCE 
             ES_FACE-1 BOUNDARY CONDITION TYPE ENCASTRE MAY NOT BE APPLIED AT 
             THIS NODE

 ***WARNING: DEGREE OF FREEDOM 1 HAS BEEN ELIMINATED AT NODE 471 INSTANCE 
             ES_FACE-1 BOUNDARY CONDITION TYPE ENCASTRE MAY NOT BE APPLIED AT 
             THIS NODE

 ***WARNING: DEGREE OF FREEDOM 2 HAS BEEN ELIMINATED AT NODE 471 INSTANCE 
             ES_FACE-1 BOUNDARY CONDITION TYPE ENCASTRE MAY NOT BE APPLIED AT 
             THIS NODE

 ***WARNING: DEGREE OF FREEDOM 3 HAS BEEN ELIMINATED AT NODE 471 INSTANCE 
             ES_FACE-1 BOUNDARY CONDITION TYPE ENCASTRE MAY NOT BE APPLIED AT 
             THIS NODE

 ***WARNING: DEGREE OF FREEDOM 1 HAS BEEN ELIMINATED AT NODE 472 INSTANCE 
             ES_FACE-1 BOUNDARY CONDITION TYPE ENCASTRE MAY NOT BE APPLIED AT 
             THIS NODE

 ***WARNING: DEGREE OF FREEDOM 2 HAS BEEN ELIMINATED AT NODE 472 INSTANCE 
             ES_FACE-1 BOUNDARY CONDITION TYPE ENCASTRE MAY NOT BE APPLIED AT 
             THIS NODE

 ***WARNING: DEGREE OF FREEDOM 3 HAS BEEN ELIMINATED AT NODE 472 INSTANCE 
             ES_FACE-1 BOUNDARY CONDITION TYPE ENCASTRE MAY NOT BE APPLIED AT 
             THIS NODE

 ***WARNING: DEGREE OF FREEDOM 1 HAS BEEN ELIMINATED AT NODE 473 INSTANCE 
             ES_FACE-1 BOUNDARY CONDITION TYPE ENCASTRE MAY NOT BE APPLIED AT 
             THIS NODE

 ***WARNING: DEGREE OF FREEDOM 2 HAS BEEN ELIMINATED AT NODE 473 INSTANCE 
             ES_FACE-1 BOUNDARY CONDITION TYPE ENCASTRE MAY NOT BE APPLIED AT 
             THIS NODE

 ***WARNING: DEGREE OF FREEDOM 3 HAS BEEN ELIMINATED AT NODE 473 INSTANCE 
             ES_FACE-1 BOUNDARY CONDITION TYPE ENCASTRE MAY NOT BE APPLIED AT 
             THIS NODE

 ***WARNING: DEGREE OF FREEDOM 1 HAS BEEN ELIMINATED AT NODE 474 INSTANCE 
             ES_FACE-1 BOUNDARY CONDITION TYPE ENCASTRE MAY NOT BE APPLIED AT 
             THIS NODE

 ***WARNING: DEGREE OF FREEDOM 2 HAS BEEN ELIMINATED AT NODE 474 INSTANCE 
             ES_FACE-1 BOUNDARY CONDITION TYPE ENCASTRE MAY NOT BE APPLIED AT 
             THIS NODE

 ***WARNING: DEGREE OF FREEDOM 3 HAS BEEN ELIMINATED AT NODE 474 INSTANCE 
             ES_FACE-1 BOUNDARY CONDITION TYPE ENCASTRE MAY NOT BE APPLIED AT 
             THIS NODE

 ***WARNING: DEGREE OF FREEDOM 1 HAS BEEN ELIMINATED AT NODE 475 INSTANCE 
             ES_FACE-1 BOUNDARY CONDITION TYPE ENCASTRE MAY NOT BE APPLIED AT 
             THIS NODE

 ***WARNING: DEGREE OF FREEDOM 2 HAS BEEN ELIMINATED AT NODE 475 INSTANCE 
             ES_FACE-1 BOUNDARY CONDITION TYPE ENCASTRE MAY NOT BE APPLIED AT 
             THIS NODE

 ***WARNING: DEGREE OF FREEDOM 3 HAS BEEN ELIMINATED AT NODE 475 INSTANCE 
             ES_FACE-1 BOUNDARY CONDITION TYPE ENCASTRE MAY NOT BE APPLIED AT 
             THIS NODE

 ***WARNING: DEGREE OF FREEDOM 1 HAS BEEN ELIMINATED AT NODE 476 INSTANCE 
             ES_FACE-1 BOUNDARY CONDITION TYPE ENCASTRE MAY NOT BE APPLIED AT 
             THIS NODE

 ***WARNING: DEGREE OF FREEDOM 2 HAS BEEN ELIMINATED AT NODE 476 INSTANCE 
             ES_FACE-1 BOUNDARY CONDITION TYPE ENCASTRE MAY NOT BE APPLIED AT 
             THIS NODE

 ***WARNING: DEGREE OF FREEDOM 3 HAS BEEN ELIMINATED AT NODE 476 INSTANCE 
             ES_FACE-1 BOUNDARY CONDITION TYPE ENCASTRE MAY NOT BE APPLIED AT 
             THIS NODE

 ***WARNING: DEGREE OF FREEDOM 1 HAS BEEN ELIMINATED AT NODE 477 INSTANCE 
             ES_FACE-1 BOUNDARY CONDITION TYPE ENCASTRE MAY NOT BE APPLIED AT 
             THIS NODE

 ***WARNING: DEGREE OF FREEDOM 2 HAS BEEN ELIMINATED AT NODE 477 INSTANCE 
             ES_FACE-1 BOUNDARY CONDITION TYPE ENCASTRE MAY NOT BE APPLIED AT 
             THIS NODE

 ***WARNING: DEGREE OF FREEDOM 3 HAS BEEN ELIMINATED AT NODE 477 INSTANCE 
             ES_FACE-1 BOUNDARY CONDITION TYPE ENCASTRE MAY NOT BE APPLIED AT 
             THIS NODE

 ***WARNING: DEGREE OF FREEDOM 1 HAS BEEN ELIMINATED AT NODE 478 INSTANCE 
             ES_FACE-1 BOUNDARY CONDITION TYPE ENCASTRE MAY NOT BE APPLIED AT 
             THIS NODE

 ***WARNING: DEGREE OF FREEDOM 2 HAS BEEN ELIMINATED AT NODE 478 INSTANCE 
             ES_FACE-1 BOUNDARY CONDITION TYPE ENCASTRE MAY NOT BE APPLIED AT 
             THIS NODE

 ***WARNING: DEGREE OF FREEDOM 3 HAS BEEN ELIMINATED AT NODE 478 INSTANCE 
             ES_FACE-1 BOUNDARY CONDITION TYPE ENCASTRE MAY NOT BE APPLIED AT 
             THIS NODE

 ***WARNING: DEGREE OF FREEDOM 1 HAS BEEN ELIMINATED AT NODE 479 INSTANCE 
             ES_FACE-1 BOUNDARY CONDITION TYPE ENCASTRE MAY NOT BE APPLIED AT 
             THIS NODE

 ***WARNING: DEGREE OF FREEDOM 2 HAS BEEN ELIMINATED AT NODE 479 INSTANCE 
             ES_FACE-1 BOUNDARY CONDITION TYPE ENCASTRE MAY NOT BE APPLIED AT 
             THIS NODE

 ***WARNING: DEGREE OF FREEDOM 3 HAS BEEN ELIMINATED AT NODE 479 INSTANCE 
             ES_FACE-1 BOUNDARY CONDITION TYPE ENCASTRE MAY NOT BE APPLIED AT 
             THIS NODE

 ***WARNING: DEGREE OF FREEDOM 1 HAS BEEN ELIMINATED AT NODE 480 INSTANCE 
             ES_FACE-1 BOUNDARY CONDITION TYPE ENCASTRE MAY NOT BE APPLIED AT 
             THIS NODE

 ***WARNING: DEGREE OF FREEDOM 2 HAS BEEN ELIMINATED AT NODE 480 INSTANCE 
             ES_FACE-1 BOUNDARY CONDITION TYPE ENCASTRE MAY NOT BE APPLIED AT 
             THIS NODE

 ***WARNING: DEGREE OF FREEDOM 3 HAS BEEN ELIMINATED AT NODE 480 INSTANCE 
             ES_FACE-1 BOUNDARY CONDITION TYPE ENCASTRE MAY NOT BE APPLIED AT 
             THIS NODE

 ***WARNING: DEGREE OF FREEDOM 1 HAS BEEN ELIMINATED AT NODE 481 INSTANCE 
             ES_FACE-1 BOUNDARY CONDITION TYPE ENCASTRE MAY NOT BE APPLIED AT 
             THIS NODE

 ***WARNING: DEGREE OF FREEDOM 2 HAS BEEN ELIMINATED AT NODE 481 INSTANCE 
             ES_FACE-1 BOUNDARY CONDITION TYPE ENCASTRE MAY NOT BE APPLIED AT 
             THIS NODE

 ***WARNING: DEGREE OF FREEDOM 3 HAS BEEN ELIMINATED AT NODE 481 INSTANCE 
             ES_FACE-1 BOUNDARY CONDITION TYPE ENCASTRE MAY NOT BE APPLIED AT 
             THIS NODE

 ***WARNING: DEGREE OF FREEDOM 1 HAS BEEN ELIMINATED AT NODE 482 INSTANCE 
             ES_FACE-1 BOUNDARY CONDITION TYPE ENCASTRE MAY NOT BE APPLIED AT 
             THIS NODE

 ***WARNING: DEGREE OF FREEDOM 2 HAS BEEN ELIMINATED AT NODE 482 INSTANCE 
             ES_FACE-1 BOUNDARY CONDITION TYPE ENCASTRE MAY NOT BE APPLIED AT 
             THIS NODE

 ***WARNING: DEGREE OF FREEDOM 3 HAS BEEN ELIMINATED AT NODE 482 INSTANCE 
             ES_FACE-1 BOUNDARY CONDITION TYPE ENCASTRE MAY NOT BE APPLIED AT 
             THIS NODE

 ***WARNING: DEGREE OF FREEDOM 1 HAS BEEN ELIMINATED AT NODE 483 INSTANCE 
             ES_FACE-1 BOUNDARY CONDITION TYPE ENCASTRE MAY NOT BE APPLIED AT 
             THIS NODE

 ***WARNING: DEGREE OF FREEDOM 2 HAS BEEN ELIMINATED AT NODE 483 INSTANCE 
             ES_FACE-1 BOUNDARY CONDITION TYPE ENCASTRE MAY NOT BE APPLIED AT 
             THIS NODE

 ***WARNING: DEGREE OF FREEDOM 3 HAS BEEN ELIMINATED AT NODE 483 INSTANCE 
             ES_FACE-1 BOUNDARY CONDITION TYPE ENCASTRE MAY NOT BE APPLIED AT 
             THIS NODE

 ***WARNING: DEGREE OF FREEDOM 1 HAS BEEN ELIMINATED AT NODE 484 INSTANCE 
             ES_FACE-1 BOUNDARY CONDITION TYPE ENCASTRE MAY NOT BE APPLIED AT 
             THIS NODE

 ***WARNING: DEGREE OF FREEDOM 2 HAS BEEN ELIMINATED AT NODE 484 INSTANCE 
             ES_FACE-1 BOUNDARY CONDITION TYPE ENCASTRE MAY NOT BE APPLIED AT 
             THIS NODE

 ***WARNING: DEGREE OF FREEDOM 3 HAS BEEN ELIMINATED AT NODE 484 INSTANCE 
             ES_FACE-1 BOUNDARY CONDITION TYPE ENCASTRE MAY NOT BE APPLIED AT 
             THIS NODE

 ***WARNING: DEGREE OF FREEDOM 1 HAS BEEN ELIMINATED AT NODE 485 INSTANCE 
             ES_FACE-1 BOUNDARY CONDITION TYPE ENCASTRE MAY NOT BE APPLIED AT 
             THIS NODE

 ***WARNING: DEGREE OF FREEDOM 2 HAS BEEN ELIMINATED AT NODE 485 INSTANCE 
             ES_FACE-1 BOUNDARY CONDITION TYPE ENCASTRE MAY NOT BE APPLIED AT 
             THIS NODE

 ***WARNING: DEGREE OF FREEDOM 3 HAS BEEN ELIMINATED AT NODE 485 INSTANCE 
             ES_FACE-1 BOUNDARY CONDITION TYPE ENCASTRE MAY NOT BE APPLIED AT 
             THIS NODE

 ***WARNING: DEGREE OF FREEDOM 1 HAS BEEN ELIMINATED AT NODE 486 INSTANCE 
             ES_FACE-1 BOUNDARY CONDITION TYPE ENCASTRE MAY NOT BE APPLIED AT 
             THIS NODE

 ***WARNING: DEGREE OF FREEDOM 2 HAS BEEN ELIMINATED AT NODE 486 INSTANCE 
             ES_FACE-1 BOUNDARY CONDITION TYPE ENCASTRE MAY NOT BE APPLIED AT 
             THIS NODE

 ***WARNING: DEGREE OF FREEDOM 3 HAS BEEN ELIMINATED AT NODE 486 INSTANCE 
             ES_FACE-1 BOUNDARY CONDITION TYPE ENCASTRE MAY NOT BE APPLIED AT 
             THIS NODE

 ***WARNING: DEGREE OF FREEDOM 1 HAS BEEN ELIMINATED AT NODE 487 INSTANCE 
             ES_FACE-1 BOUNDARY CONDITION TYPE ENCASTRE MAY NOT BE APPLIED AT 
             THIS NODE

 ***WARNING: DEGREE OF FREEDOM 2 HAS BEEN ELIMINATED AT NODE 487 INSTANCE 
             ES_FACE-1 BOUNDARY CONDITION TYPE ENCASTRE MAY NOT BE APPLIED AT 
             THIS NODE

 ***WARNING: DEGREE OF FREEDOM 3 HAS BEEN ELIMINATED AT NODE 487 INSTANCE 
             ES_FACE-1 BOUNDARY CONDITION TYPE ENCASTRE MAY NOT BE APPLIED AT 
             THIS NODE

 ***WARNING: DEGREE OF FREEDOM 1 HAS BEEN ELIMINATED AT NODE 488 INSTANCE 
             ES_FACE-1 BOUNDARY CONDITION TYPE ENCASTRE MAY NOT BE APPLIED AT 
             THIS NODE

 ***WARNING: DEGREE OF FREEDOM 2 HAS BEEN ELIMINATED AT NODE 488 INSTANCE 
             ES_FACE-1 BOUNDARY CONDITION TYPE ENCASTRE MAY NOT BE APPLIED AT 
             THIS NODE

 ***WARNING: DEGREE OF FREEDOM 3 HAS BEEN ELIMINATED AT NODE 488 INSTANCE 
             ES_FACE-1 BOUNDARY CONDITION TYPE ENCASTRE MAY NOT BE APPLIED AT 
             THIS NODE

 ***WARNING: DEGREE OF FREEDOM 1 HAS BEEN ELIMINATED AT NODE 489 INSTANCE 
             ES_FACE-1 BOUNDARY CONDITION TYPE ENCASTRE MAY NOT BE APPLIED AT 
             THIS NODE

 ***WARNING: DEGREE OF FREEDOM 2 HAS BEEN ELIMINATED AT NODE 489 INSTANCE 
             ES_FACE-1 BOUNDARY CONDITION TYPE ENCASTRE MAY NOT BE APPLIED AT 
             THIS NODE

 ***WARNING: DEGREE OF FREEDOM 3 HAS BEEN ELIMINATED AT NODE 489 INSTANCE 
             ES_FACE-1 BOUNDARY CONDITION TYPE ENCASTRE MAY NOT BE APPLIED AT 
             THIS NODE

 ***WARNING: DEGREE OF FREEDOM 1 HAS BEEN ELIMINATED AT NODE 490 INSTANCE 
             ES_FACE-1 BOUNDARY CONDITION TYPE ENCASTRE MAY NOT BE APPLIED AT 
             THIS NODE

 ***WARNING: DEGREE OF FREEDOM 2 HAS BEEN ELIMINATED AT NODE 490 INSTANCE 
             ES_FACE-1 BOUNDARY CONDITION TYPE ENCASTRE MAY NOT BE APPLIED AT 
             THIS NODE

 ***WARNING: DEGREE OF FREEDOM 3 HAS BEEN ELIMINATED AT NODE 490 INSTANCE 
             ES_FACE-1 BOUNDARY CONDITION TYPE ENCASTRE MAY NOT BE APPLIED AT 
             THIS NODE

 ***WARNING: DEGREE OF FREEDOM 1 HAS BEEN ELIMINATED AT NODE 491 INSTANCE 
             ES_FACE-1 BOUNDARY CONDITION TYPE ENCASTRE MAY NOT BE APPLIED AT 
             THIS NODE

 ***WARNING: DEGREE OF FREEDOM 2 HAS BEEN ELIMINATED AT NODE 491 INSTANCE 
             ES_FACE-1 BOUNDARY CONDITION TYPE ENCASTRE MAY NOT BE APPLIED AT 
             THIS NODE

 ***WARNING: DEGREE OF FREEDOM 3 HAS BEEN ELIMINATED AT NODE 491 INSTANCE 
             ES_FACE-1 BOUNDARY CONDITION TYPE ENCASTRE MAY NOT BE APPLIED AT 
             THIS NODE

 ***WARNING: DEGREE OF FREEDOM 1 HAS BEEN ELIMINATED AT NODE 492 INSTANCE 
             ES_FACE-1 BOUNDARY CONDITION TYPE ENCASTRE MAY NOT BE APPLIED AT 
             THIS NODE

 ***WARNING: DEGREE OF FREEDOM 2 HAS BEEN ELIMINATED AT NODE 492 INSTANCE 
             ES_FACE-1 BOUNDARY CONDITION TYPE ENCASTRE MAY NOT BE APPLIED AT 
             THIS NODE

 ***WARNING: DEGREE OF FREEDOM 3 HAS BEEN ELIMINATED AT NODE 492 INSTANCE 
             ES_FACE-1 BOUNDARY CONDITION TYPE ENCASTRE MAY NOT BE APPLIED AT 
             THIS NODE

 ***WARNING: DEGREE OF FREEDOM 1 HAS BEEN ELIMINATED AT NODE 493 INSTANCE 
             ES_FACE-1 BOUNDARY CONDITION TYPE ENCASTRE MAY NOT BE APPLIED AT 
             THIS NODE

 ***WARNING: DEGREE OF FREEDOM 2 HAS BEEN ELIMINATED AT NODE 493 INSTANCE 
             ES_FACE-1 BOUNDARY CONDITION TYPE ENCASTRE MAY NOT BE APPLIED AT 
             THIS NODE

 ***WARNING: DEGREE OF FREEDOM 3 HAS BEEN ELIMINATED AT NODE 493 INSTANCE 
             ES_FACE-1 BOUNDARY CONDITION TYPE ENCASTRE MAY NOT BE APPLIED AT 
             THIS NODE

 ***WARNING: DEGREE OF FREEDOM 1 HAS BEEN ELIMINATED AT NODE 494 INSTANCE 
             ES_FACE-1 BOUNDARY CONDITION TYPE ENCASTRE MAY NOT BE APPLIED AT 
             THIS NODE

 ***WARNING: DEGREE OF FREEDOM 2 HAS BEEN ELIMINATED AT NODE 494 INSTANCE 
             ES_FACE-1 BOUNDARY CONDITION TYPE ENCASTRE MAY NOT BE APPLIED AT 
             THIS NODE

 ***WARNING: DEGREE OF FREEDOM 3 HAS BEEN ELIMINATED AT NODE 494 INSTANCE 
             ES_FACE-1 BOUNDARY CONDITION TYPE ENCASTRE MAY NOT BE APPLIED AT 
             THIS NODE

 ***WARNING: DEGREE OF FREEDOM 1 HAS BEEN ELIMINATED AT NODE 495 INSTANCE 
             ES_FACE-1 BOUNDARY CONDITION TYPE ENCASTRE MAY NOT BE APPLIED AT 
             THIS NODE

 ***WARNING: DEGREE OF FREEDOM 2 HAS BEEN ELIMINATED AT NODE 495 INSTANCE 
             ES_FACE-1 BOUNDARY CONDITION TYPE ENCASTRE MAY NOT BE APPLIED AT 
             THIS NODE

 ***WARNING: DEGREE OF FREEDOM 3 HAS BEEN ELIMINATED AT NODE 495 INSTANCE 
             ES_FACE-1 BOUNDARY CONDITION TYPE ENCASTRE MAY NOT BE APPLIED AT 
             THIS NODE

 ***WARNING: DEGREE OF FREEDOM 1 HAS BEEN ELIMINATED AT NODE 496 INSTANCE 
             ES_FACE-1 BOUNDARY CONDITION TYPE ENCASTRE MAY NOT BE APPLIED AT 
             THIS NODE

 ***WARNING: DEGREE OF FREEDOM 2 HAS BEEN ELIMINATED AT NODE 496 INSTANCE 
             ES_FACE-1 BOUNDARY CONDITION TYPE ENCASTRE MAY NOT BE APPLIED AT 
             THIS NODE

 ***WARNING: DEGREE OF FREEDOM 3 HAS BEEN ELIMINATED AT NODE 496 INSTANCE 
             ES_FACE-1 BOUNDARY CONDITION TYPE ENCASTRE MAY NOT BE APPLIED AT 
             THIS NODE

 ***WARNING: DEGREE OF FREEDOM 1 HAS BEEN ELIMINATED AT NODE 497 INSTANCE 
             ES_FACE-1 BOUNDARY CONDITION TYPE ENCASTRE MAY NOT BE APPLIED AT 
             THIS NODE

 ***WARNING: DEGREE OF FREEDOM 2 HAS BEEN ELIMINATED AT NODE 497 INSTANCE 
             ES_FACE-1 BOUNDARY CONDITION TYPE ENCASTRE MAY NOT BE APPLIED AT 
             THIS NODE

 ***WARNING: DEGREE OF FREEDOM 3 HAS BEEN ELIMINATED AT NODE 497 INSTANCE 
             ES_FACE-1 BOUNDARY CONDITION TYPE ENCASTRE MAY NOT BE APPLIED AT 
             THIS NODE

 ***WARNING: DEGREE OF FREEDOM 1 HAS BEEN ELIMINATED AT NODE 498 INSTANCE 
             ES_FACE-1 BOUNDARY CONDITION TYPE ENCASTRE MAY NOT BE APPLIED AT 
             THIS NODE

 ***WARNING: DEGREE OF FREEDOM 2 HAS BEEN ELIMINATED AT NODE 498 INSTANCE 
             ES_FACE-1 BOUNDARY CONDITION TYPE ENCASTRE MAY NOT BE APPLIED AT 
             THIS NODE

 ***WARNING: DEGREE OF FREEDOM 3 HAS BEEN ELIMINATED AT NODE 498 INSTANCE 
             ES_FACE-1 BOUNDARY CONDITION TYPE ENCASTRE MAY NOT BE APPLIED AT 
             THIS NODE

 ***WARNING: DEGREE OF FREEDOM 1 HAS BEEN ELIMINATED AT NODE 499 INSTANCE 
             ES_FACE-1 BOUNDARY CONDITION TYPE ENCASTRE MAY NOT BE APPLIED AT 
             THIS NODE

 ***WARNING: DEGREE OF FREEDOM 2 HAS BEEN ELIMINATED AT NODE 499 INSTANCE 
             ES_FACE-1 BOUNDARY CONDITION TYPE ENCASTRE MAY NOT BE APPLIED AT 
             THIS NODE

 ***WARNING: DEGREE OF FREEDOM 3 HAS BEEN ELIMINATED AT NODE 499 INSTANCE 
             ES_FACE-1 BOUNDARY CONDITION TYPE ENCASTRE MAY NOT BE APPLIED AT 
             THIS NODE

 ***WARNING: DEGREE OF FREEDOM 1 HAS BEEN ELIMINATED AT NODE 500 INSTANCE 
             ES_FACE-1 BOUNDARY CONDITION TYPE ENCASTRE MAY NOT BE APPLIED AT 
             THIS NODE

 ***WARNING: DEGREE OF FREEDOM 2 HAS BEEN ELIMINATED AT NODE 500 INSTANCE 
             ES_FACE-1 BOUNDARY CONDITION TYPE ENCASTRE MAY NOT BE APPLIED AT 
             THIS NODE

 ***WARNING: DEGREE OF FREEDOM 3 HAS BEEN ELIMINATED AT NODE 500 INSTANCE 
             ES_FACE-1 BOUNDARY CONDITION TYPE ENCASTRE MAY NOT BE APPLIED AT 
             THIS NODE

 ***WARNING: DEGREE OF FREEDOM 1 HAS BEEN ELIMINATED AT NODE 501 INSTANCE 
             ES_FACE-1 BOUNDARY CONDITION TYPE ENCASTRE MAY NOT BE APPLIED AT 
             THIS NODE

 ***WARNING: DEGREE OF FREEDOM 2 HAS BEEN ELIMINATED AT NODE 501 INSTANCE 
             ES_FACE-1 BOUNDARY CONDITION TYPE ENCASTRE MAY NOT BE APPLIED AT 
             THIS NODE

 ***WARNING: DEGREE OF FREEDOM 3 HAS BEEN ELIMINATED AT NODE 501 INSTANCE 
             ES_FACE-1 BOUNDARY CONDITION TYPE ENCASTRE MAY NOT BE APPLIED AT 
             THIS NODE

 ***WARNING: DEGREE OF FREEDOM 1 HAS BEEN ELIMINATED AT NODE 502 INSTANCE 
             ES_FACE-1 BOUNDARY CONDITION TYPE ENCASTRE MAY NOT BE APPLIED AT 
             THIS NODE

 ***WARNING: DEGREE OF FREEDOM 2 HAS BEEN ELIMINATED AT NODE 502 INSTANCE 
             ES_FACE-1 BOUNDARY CONDITION TYPE ENCASTRE MAY NOT BE APPLIED AT 
             THIS NODE

 ***WARNING: DEGREE OF FREEDOM 3 HAS BEEN ELIMINATED AT NODE 502 INSTANCE 
             ES_FACE-1 BOUNDARY CONDITION TYPE ENCASTRE MAY NOT BE APPLIED AT 
             THIS NODE

 ***WARNING: DEGREE OF FREEDOM 1 HAS BEEN ELIMINATED AT NODE 503 INSTANCE 
             ES_FACE-1 BOUNDARY CONDITION TYPE ENCASTRE MAY NOT BE APPLIED AT 
             THIS NODE

 ***WARNING: DEGREE OF FREEDOM 2 HAS BEEN ELIMINATED AT NODE 503 INSTANCE 
             ES_FACE-1 BOUNDARY CONDITION TYPE ENCASTRE MAY NOT BE APPLIED AT 
             THIS NODE

 ***WARNING: DEGREE OF FREEDOM 3 HAS BEEN ELIMINATED AT NODE 503 INSTANCE 
             ES_FACE-1 BOUNDARY CONDITION TYPE ENCASTRE MAY NOT BE APPLIED AT 
             THIS NODE

 ***WARNING: DEGREE OF FREEDOM 1 HAS BEEN ELIMINATED AT NODE 504 INSTANCE 
             ES_FACE-1 BOUNDARY CONDITION TYPE ENCASTRE MAY NOT BE APPLIED AT 
             THIS NODE

 ***WARNING: DEGREE OF FREEDOM 2 HAS BEEN ELIMINATED AT NODE 504 INSTANCE 
             ES_FACE-1 BOUNDARY CONDITION TYPE ENCASTRE MAY NOT BE APPLIED AT 
             THIS NODE

 ***WARNING: DEGREE OF FREEDOM 3 HAS BEEN ELIMINATED AT NODE 504 INSTANCE 
             ES_FACE-1 BOUNDARY CONDITION TYPE ENCASTRE MAY NOT BE APPLIED AT 
             THIS NODE

 ***WARNING: DEGREE OF FREEDOM 1 HAS BEEN ELIMINATED AT NODE 505 INSTANCE 
             ES_FACE-1 BOUNDARY CONDITION TYPE ENCASTRE MAY NOT BE APPLIED AT 
             THIS NODE

 ***WARNING: DEGREE OF FREEDOM 2 HAS BEEN ELIMINATED AT NODE 505 INSTANCE 
             ES_FACE-1 BOUNDARY CONDITION TYPE ENCASTRE MAY NOT BE APPLIED AT 
             THIS NODE

 ***WARNING: DEGREE OF FREEDOM 3 HAS BEEN ELIMINATED AT NODE 505 INSTANCE 
             ES_FACE-1 BOUNDARY CONDITION TYPE ENCASTRE MAY NOT BE APPLIED AT 
             THIS NODE

 ***WARNING: DEGREE OF FREEDOM 1 HAS BEEN ELIMINATED AT NODE 506 INSTANCE 
             ES_FACE-1 BOUNDARY CONDITION TYPE ENCASTRE MAY NOT BE APPLIED AT 
             THIS NODE

 ***WARNING: DEGREE OF FREEDOM 2 HAS BEEN ELIMINATED AT NODE 506 INSTANCE 
             ES_FACE-1 BOUNDARY CONDITION TYPE ENCASTRE MAY NOT BE APPLIED AT 
             THIS NODE

 ***WARNING: DEGREE OF FREEDOM 3 HAS BEEN ELIMINATED AT NODE 506 INSTANCE 
             ES_FACE-1 BOUNDARY CONDITION TYPE ENCASTRE MAY NOT BE APPLIED AT 
             THIS NODE

 ***WARNING: DEGREE OF FREEDOM 1 HAS BEEN ELIMINATED AT NODE 507 INSTANCE 
             ES_FACE-1 BOUNDARY CONDITION TYPE ENCASTRE MAY NOT BE APPLIED AT 
             THIS NODE

 ***WARNING: DEGREE OF FREEDOM 2 HAS BEEN ELIMINATED AT NODE 507 INSTANCE 
             ES_FACE-1 BOUNDARY CONDITION TYPE ENCASTRE MAY NOT BE APPLIED AT 
             THIS NODE

 ***WARNING: DEGREE OF FREEDOM 3 HAS BEEN ELIMINATED AT NODE 507 INSTANCE 
             ES_FACE-1 BOUNDARY CONDITION TYPE ENCASTRE MAY NOT BE APPLIED AT 
             THIS NODE

 ***WARNING: DEGREE OF FREEDOM 1 HAS BEEN ELIMINATED AT NODE 508 INSTANCE 
             ES_FACE-1 BOUNDARY CONDITION TYPE ENCASTRE MAY NOT BE APPLIED AT 
             THIS NODE

 ***WARNING: DEGREE OF FREEDOM 2 HAS BEEN ELIMINATED AT NODE 508 INSTANCE 
             ES_FACE-1 BOUNDARY CONDITION TYPE ENCASTRE MAY NOT BE APPLIED AT 
             THIS NODE

 ***WARNING: DEGREE OF FREEDOM 3 HAS BEEN ELIMINATED AT NODE 508 INSTANCE 
             ES_FACE-1 BOUNDARY CONDITION TYPE ENCASTRE MAY NOT BE APPLIED AT 
             THIS NODE

 ***WARNING: DEGREE OF FREEDOM 1 HAS BEEN ELIMINATED AT NODE 509 INSTANCE 
             ES_FACE-1 BOUNDARY CONDITION TYPE ENCASTRE MAY NOT BE APPLIED AT 
             THIS NODE

 ***WARNING: DEGREE OF FREEDOM 2 HAS BEEN ELIMINATED AT NODE 509 INSTANCE 
             ES_FACE-1 BOUNDARY CONDITION TYPE ENCASTRE MAY NOT BE APPLIED AT 
             THIS NODE

 ***WARNING: DEGREE OF FREEDOM 3 HAS BEEN ELIMINATED AT NODE 509 INSTANCE 
             ES_FACE-1 BOUNDARY CONDITION TYPE ENCASTRE MAY NOT BE APPLIED AT 
             THIS NODE

 ***WARNING: DEGREE OF FREEDOM 1 HAS BEEN ELIMINATED AT NODE 510 INSTANCE 
[...]
             ES_FACE-1 BOUNDARY CONDITION TYPE ENCASTRE MAY NOT BE APPLIED AT 
             THIS NODE

 ***WARNING: DEGREE OF FREEDOM 3 HAS BEEN ELIMINATED AT NODE 871 INSTANCE 
             ES_FACE-1 BOUNDARY CONDITION TYPE ENCASTRE MAY NOT BE APPLIED AT 
             THIS NODE

 ***WARNING: DEGREE OF FREEDOM 1 HAS BEEN ELIMINATED AT NODE 872 INSTANCE 
             ES_FACE-1 BOUNDARY CONDITION TYPE ENCASTRE MAY NOT BE APPLIED AT 
             THIS NODE

 ***WARNING: DEGREE OF FREEDOM 2 HAS BEEN ELIMINATED AT NODE 872 INSTANCE 
             ES_FACE-1 BOUNDARY CONDITION TYPE ENCASTRE MAY NOT BE APPLIED AT 
             THIS NODE

 ***WARNING: DEGREE OF FREEDOM 3 HAS BEEN ELIMINATED AT NODE 872 INSTANCE 
             ES_FACE-1 BOUNDARY CONDITION TYPE ENCASTRE MAY NOT BE APPLIED AT 
             THIS NODE

 ***WARNING: DEGREE OF FREEDOM 1 HAS BEEN ELIMINATED AT NODE 873 INSTANCE 
             ES_FACE-1 BOUNDARY CONDITION TYPE ENCASTRE MAY NOT BE APPLIED AT 
             THIS NODE

 ***WARNING: DEGREE OF FREEDOM 2 HAS BEEN ELIMINATED AT NODE 873 INSTANCE 
             ES_FACE-1 BOUNDARY CONDITION TYPE ENCASTRE MAY NOT BE APPLIED AT 
             THIS NODE

 ***WARNING: DEGREE OF FREEDOM 3 HAS BEEN ELIMINATED AT NODE 873 INSTANCE 
             ES_FACE-1 BOUNDARY CONDITION TYPE ENCASTRE MAY NOT BE APPLIED AT 
             THIS NODE

 ***WARNING: DEGREE OF FREEDOM 1 HAS BEEN ELIMINATED AT NODE 874 INSTANCE 
             ES_FACE-1 BOUNDARY CONDITION TYPE ENCASTRE MAY NOT BE APPLIED AT 
             THIS NODE

 ***WARNING: DEGREE OF FREEDOM 2 HAS BEEN ELIMINATED AT NODE 874 INSTANCE 
             ES_FACE-1 BOUNDARY CONDITION TYPE ENCASTRE MAY NOT BE APPLIED AT 
             THIS NODE

 ***WARNING: DEGREE OF FREEDOM 3 HAS BEEN ELIMINATED AT NODE 874 INSTANCE 
             ES_FACE-1 BOUNDARY CONDITION TYPE ENCASTRE MAY NOT BE APPLIED AT 
             THIS NODE

 ***WARNING: DEGREE OF FREEDOM 1 HAS BEEN ELIMINATED AT NODE 875 INSTANCE 
             ES_FACE-1 BOUNDARY CONDITION TYPE ENCASTRE MAY NOT BE APPLIED AT 
             THIS NODE

 ***WARNING: DEGREE OF FREEDOM 2 HAS BEEN ELIMINATED AT NODE 875 INSTANCE 
             ES_FACE-1 BOUNDARY CONDITION TYPE ENCASTRE MAY NOT BE APPLIED AT 
             THIS NODE

 ***WARNING: DEGREE OF FREEDOM 3 HAS BEEN ELIMINATED AT NODE 875 INSTANCE 
             ES_FACE-1 BOUNDARY CONDITION TYPE ENCASTRE MAY NOT BE APPLIED AT 
             THIS NODE

 ***WARNING: DEGREE OF FREEDOM 1 HAS BEEN ELIMINATED AT NODE 876 INSTANCE 
             ES_FACE-1 BOUNDARY CONDITION TYPE ENCASTRE MAY NOT BE APPLIED AT 
             THIS NODE

 ***WARNING: DEGREE OF FREEDOM 2 HAS BEEN ELIMINATED AT NODE 876 INSTANCE 
             ES_FACE-1 BOUNDARY CONDITION TYPE ENCASTRE MAY NOT BE APPLIED AT 
             THIS NODE

 ***WARNING: DEGREE OF FREEDOM 3 HAS BEEN ELIMINATED AT NODE 876 INSTANCE 
             ES_FACE-1 BOUNDARY CONDITION TYPE ENCASTRE MAY NOT BE APPLIED AT 
             THIS NODE

 ***WARNING: DEGREE OF FREEDOM 1 HAS BEEN ELIMINATED AT NODE 877 INSTANCE 
             ES_FACE-1 BOUNDARY CONDITION TYPE ENCASTRE MAY NOT BE APPLIED AT 
             THIS NODE

 ***WARNING: DEGREE OF FREEDOM 2 HAS BEEN ELIMINATED AT NODE 877 INSTANCE 
             ES_FACE-1 BOUNDARY CONDITION TYPE ENCASTRE MAY NOT BE APPLIED AT 
             THIS NODE

 ***WARNING: DEGREE OF FREEDOM 3 HAS BEEN ELIMINATED AT NODE 877 INSTANCE 
             ES_FACE-1 BOUNDARY CONDITION TYPE ENCASTRE MAY NOT BE APPLIED AT 
             THIS NODE

 ***WARNING: DEGREE OF FREEDOM 1 HAS BEEN ELIMINATED AT NODE 878 INSTANCE 
             ES_FACE-1 BOUNDARY CONDITION TYPE ENCASTRE MAY NOT BE APPLIED AT 
             THIS NODE

 ***WARNING: DEGREE OF FREEDOM 2 HAS BEEN ELIMINATED AT NODE 878 INSTANCE 
             ES_FACE-1 BOUNDARY CONDITION TYPE ENCASTRE MAY NOT BE APPLIED AT 
             THIS NODE

 ***WARNING: DEGREE OF FREEDOM 3 HAS BEEN ELIMINATED AT NODE 878 INSTANCE 
             ES_FACE-1 BOUNDARY CONDITION TYPE ENCASTRE MAY NOT BE APPLIED AT 
             THIS NODE

 ***WARNING: DEGREE OF FREEDOM 1 HAS BEEN ELIMINATED AT NODE 879 INSTANCE 
             ES_FACE-1 BOUNDARY CONDITION TYPE ENCASTRE MAY NOT BE APPLIED AT 
             THIS NODE

 ***WARNING: DEGREE OF FREEDOM 2 HAS BEEN ELIMINATED AT NODE 879 INSTANCE 
             ES_FACE-1 BOUNDARY CONDITION TYPE ENCASTRE MAY NOT BE APPLIED AT 
             THIS NODE

 ***WARNING: DEGREE OF FREEDOM 3 HAS BEEN ELIMINATED AT NODE 879 INSTANCE 
             ES_FACE-1 BOUNDARY CONDITION TYPE ENCASTRE MAY NOT BE APPLIED AT 
             THIS NODE

 ***WARNING: DEGREE OF FREEDOM 1 HAS BEEN ELIMINATED AT NODE 880 INSTANCE 
             ES_FACE-1 BOUNDARY CONDITION TYPE ENCASTRE MAY NOT BE APPLIED AT 
             THIS NODE

 ***WARNING: DEGREE OF FREEDOM 2 HAS BEEN ELIMINATED AT NODE 880 INSTANCE 
             ES_FACE-1 BOUNDARY CONDITION TYPE ENCASTRE MAY NOT BE APPLIED AT 
             THIS NODE

 ***WARNING: DEGREE OF FREEDOM 3 HAS BEEN ELIMINATED AT NODE 880 INSTANCE 
             ES_FACE-1 BOUNDARY CONDITION TYPE ENCASTRE MAY NOT BE APPLIED AT 
             THIS NODE

 ***WARNING: DEGREE OF FREEDOM 1 HAS BEEN ELIMINATED AT NODE 881 INSTANCE 
             ES_FACE-1 BOUNDARY CONDITION TYPE ENCASTRE MAY NOT BE APPLIED AT 
             THIS NODE

 ***WARNING: DEGREE OF FREEDOM 2 HAS BEEN ELIMINATED AT NODE 881 INSTANCE 
             ES_FACE-1 BOUNDARY CONDITION TYPE ENCASTRE MAY NOT BE APPLIED AT 
             THIS NODE

 ***WARNING: DEGREE OF FREEDOM 3 HAS BEEN ELIMINATED AT NODE 881 INSTANCE 
             ES_FACE-1 BOUNDARY CONDITION TYPE ENCASTRE MAY NOT BE APPLIED AT 
             THIS NODE

 ***WARNING: DEGREE OF FREEDOM 1 HAS BEEN ELIMINATED AT NODE 882 INSTANCE 
             ES_FACE-1 BOUNDARY CONDITION TYPE ENCASTRE MAY NOT BE APPLIED AT 
             THIS NODE

 ***WARNING: DEGREE OF FREEDOM 2 HAS BEEN ELIMINATED AT NODE 882 INSTANCE 
             ES_FACE-1 BOUNDARY CONDITION TYPE ENCASTRE MAY NOT BE APPLIED AT 
             THIS NODE

 ***WARNING: DEGREE OF FREEDOM 3 HAS BEEN ELIMINATED AT NODE 882 INSTANCE 
             ES_FACE-1 BOUNDARY CONDITION TYPE ENCASTRE MAY NOT BE APPLIED AT 
             THIS NODE

 ***WARNING: 441 nodes have dof on which incorrect boundary conditions may have 
             been specified. The nodes have been identified in node set 
             WarnNodeBCIncorrectDof.



                            P R O B L E M   S I Z E


          NUMBER OF ELEMENTS IS                                  5089
          NUMBER OF ELEMENTS DEFINED BY THE USER AND *TIE        5088
          NUMBER OF NODES IS                                     6359
          NUMBER OF NODES DEFINED BY THE USER                    6359
          TOTAL NUMBER OF VARIABLES IN THE MODEL                19078
          (DEGREES OF FREEDOM PLUS MAX NO. OF ANY LAGRANGE MULTIPLIER
           VARIABLES. INCLUDE *PRINT,SOLVE=YES TO GET THE ACTUAL NUMBER.)



                              END OF USER INPUT PROCESSING



     JOB TIME SUMMARY
       USER TIME (SEC)      =  0.72000    
       SYSTEM TIME (SEC)    =  0.17000    
       TOTAL CPU TIME (SEC) =  0.89000    
       WALLCLOCK TIME (SEC) =          1
1

   Abaqus 2020                                  Date 16-Jun-2021   Time 23:04:48
   For use by PURDUE UNIVERSITY under license from Dassault Systemes or its subsidiary.

                                                                                               STEP    1  INCREMENT    1
                                                                                          TIME COMPLETED IN THIS STEP   0.00    


                        S T E P       1     S T A T I C   A N A L Y S I S


                                                                                          

     AUTOMATIC TIME CONTROL WITH -
          A SUGGESTED INITIAL TIME INCREMENT OF                 1.00    
          AND A TOTAL TIME PERIOD OF                            10.0    
          THE MINIMUM TIME INCREMENT ALLOWED IS                1.000E-04
          THE MAXIMUM TIME INCREMENT ALLOWED IS                 1.00    

     LINEAR EQUATION SOLVER TYPE         DIRECT SPARSE

          LARGE DISPLACEMENT THEORY WILL BE USED
  
                   M E M O R Y   E S T I M A T E
  
 PROCESS      FLOATING PT       MINIMUM MEMORY        MEMORY TO
              OPERATIONS           REQUIRED          MINIMIZE I/O
             PER ITERATION           (MB)               (MB)
  
     1          6.83E+08               31                 69
  
 NOTE:
      (1) SINCE ABAQUS DOES NOT PRE-ALLOCATE MEMORY AND ONLY ALLOCATES MEMORY AS NEEDED DURING THE ANALYSIS,
          THE MEMORY REQUIREMENT PRINTED HERE CAN ONLY BE VIEWED AS A GENERAL GUIDELINE BASED ON THE BEST
          KNOWLEDGE AVAILABLE AT THE BEGINNING OF A STEP BEFORE THE SOLUTION PROCESS HAS BEGUN.
      (2) THE ESTIMATE IS NORMALLY UPDATED AT THE BEGINNING OF EVERY STEP. IT IS THE MAXIMUM VALUE OF THE
          ESTIMATE FROM THE CURRENT STEP TO THE LAST STEP OF THE ANALYSIS, WITH UNSYMMETRIC SOLUTION TAKEN
          INTO ACCOUNT IF APPLICABLE. 
      (3) SINCE THE ESTIMATE IS BASED ON THE ACTIVE DEGREES OF FREEDOM IN THE FIRST ITERATION OF THE 
          CURRENT STEP, THE MEMORY ESTIMATE MIGHT BE SIGNIFICANTLY DIFFERENT THAN ACTUAL USAGE FOR 
          PROBLEMS WITH SUBSTANTIAL CHANGES IN ACTIVE DEGREES OF FREEDOM BETWEEN STEPS (OR EVEN WITHIN
          THE SAME STEP). EXAMPLES ARE: PROBLEMS WITH SIGNIFICANT CONTACT CHANGES, PROBLEMS WITH MODEL
          CHANGE, PROBLEMS WITH BOTH STATIC STEP AND STEADY STATE DYNAMIC PROCEDURES WHERE ACOUSTIC 
          ELEMENTS WILL ONLY BE ACTIVATED IN THE STEADY STATE DYNAMIC STEPS.
      (4) FOR MULTI-PROCESS EXECUTION, THE ESTIMATED VALUE OF FLOATING POINT OPERATIONS FOR EACH PROCESS
          IS BASED ON AN INITIAL SCHEDULING OF OPERATIONS AND MIGHT NOT REFLECT THE ACTUAL FLOATING 
          POINT OPERATIONS COMPLETED ON EACH PROCESS. OPERATIONS ARE DYNAMICALLY BALANCED DURING EXECUTION, 
          SO THE ACTUAL BALANCE OF OPERATIONS BETWEEN PROCESSES IS EXPECTED TO BE BETTER THAN THE ESTIMATE
          PRINTED HERE.
      (5) THE UPPER LIMIT OF MEMORY THAT CAN BE ALLOCATED BY ABAQUS WILL IN GENERAL DEPEND ON THE VALUE OF
          THE "MEMORY" PARAMETER AND THE AMOUNT OF PHYSICAL MEMORY AVAILABLE ON THE MACHINE. PLEASE SEE
          THE "ABAQUS ANALYSIS USER'S MANUAL" FOR MORE DETAILS. THE ACTUAL USAGE OF MEMORY AND OF DISK
          SPACE FOR SCRATCH DATA WILL DEPEND ON THIS UPPER LIMIT AS WELL AS THE MEMORY REQUIRED TO MINIMIZE
          I/O. IF THE MEMORY UPPER LIMIT IS GREATER THAN THE MEMORY REQUIRED TO MINIMIZE I/O, THEN THE ACTUAL
          MEMORY USAGE WILL BE CLOSE TO THE ESTIMATED "MEMORY TO MINIMIZE I/O" VALUE, AND THE SCRATCH DISK
          USAGE WILL BE CLOSE-TO-ZERO; OTHERWISE, THE ACTUAL MEMORY USED WILL BE CLOSE TO THE PREVIOUSLY
          MENTIONED MEMORY LIMIT, AND THE SCRATCH DISK USAGE WILL BE ROUGHLY PROPORTIONAL TO THE DIFFERENCE
          BETWEEN THE ESTIMATED "MEMORY TO MINIMIZE I/O" AND THE MEMORY UPPER LIMIT. HOWEVER ACCURATE
          ESTIMATE OF THE SCRATCH DISK SPACE IS NOT POSSIBLE.
      (6) USING "*RESTART, WRITE" CAN GENERATE A LARGE AMOUNT OF DATA WRITTEN IN THE WORK DIRECTORY.
1

   Abaqus 2020                                  Date 16-Jun-2021   Time 23:07:36
   For use by PURDUE UNIVERSITY under license from Dassault Systemes or its subsidiary.

                                                                                               STEP    2  INCREMENT    1
                                                                                          TIME COMPLETED IN THIS STEP   0.00    


                        S T E P       2     S T A T I C   A N A L Y S I S


                                                                                          

     AUTOMATIC TIME CONTROL WITH -
          A SUGGESTED INITIAL TIME INCREMENT OF                 1.00    
          AND A TOTAL TIME PERIOD OF                            10.0    
          THE MINIMUM TIME INCREMENT ALLOWED IS                1.000E-04
          THE MAXIMUM TIME INCREMENT ALLOWED IS                 1.00    

     LINEAR EQUATION SOLVER TYPE         DIRECT SPARSE

          LARGE DISPLACEMENT THEORY WILL BE USED
  
                   M E M O R Y   E S T I M A T E
  
 PROCESS      FLOATING PT       MINIMUM MEMORY        MEMORY TO
              OPERATIONS           REQUIRED          MINIMIZE I/O
             PER ITERATION           (MB)               (MB)
  
     1          6.83E+08               31                 71
  
 NOTE:
      (1) SINCE ABAQUS DOES NOT PRE-ALLOCATE MEMORY AND ONLY ALLOCATES MEMORY AS NEEDED DURING THE ANALYSIS,
          THE MEMORY REQUIREMENT PRINTED HERE CAN ONLY BE VIEWED AS A GENERAL GUIDELINE BASED ON THE BEST
          KNOWLEDGE AVAILABLE AT THE BEGINNING OF A STEP BEFORE THE SOLUTION PROCESS HAS BEGUN.
      (2) THE ESTIMATE IS NORMALLY UPDATED AT THE BEGINNING OF EVERY STEP. IT IS THE MAXIMUM VALUE OF THE
          ESTIMATE FROM THE CURRENT STEP TO THE LAST STEP OF THE ANALYSIS, WITH UNSYMMETRIC SOLUTION TAKEN
          INTO ACCOUNT IF APPLICABLE. 
      (3) SINCE THE ESTIMATE IS BASED ON THE ACTIVE DEGREES OF FREEDOM IN THE FIRST ITERATION OF THE 
          CURRENT STEP, THE MEMORY ESTIMATE MIGHT BE SIGNIFICANTLY DIFFERENT THAN ACTUAL USAGE FOR 
          PROBLEMS WITH SUBSTANTIAL CHANGES IN ACTIVE DEGREES OF FREEDOM BETWEEN STEPS (OR EVEN WITHIN
          THE SAME STEP). EXAMPLES ARE: PROBLEMS WITH SIGNIFICANT CONTACT CHANGES, PROBLEMS WITH MODEL
          CHANGE, PROBLEMS WITH BOTH STATIC STEP AND STEADY STATE DYNAMIC PROCEDURES WHERE ACOUSTIC 
          ELEMENTS WILL ONLY BE ACTIVATED IN THE STEADY STATE DYNAMIC STEPS.
      (4) FOR MULTI-PROCESS EXECUTION, THE ESTIMATED VALUE OF FLOATING POINT OPERATIONS FOR EACH PROCESS
          IS BASED ON AN INITIAL SCHEDULING OF OPERATIONS AND MIGHT NOT REFLECT THE ACTUAL FLOATING 
          POINT OPERATIONS COMPLETED ON EACH PROCESS. OPERATIONS ARE DYNAMICALLY BALANCED DURING EXECUTION, 
          SO THE ACTUAL BALANCE OF OPERATIONS BETWEEN PROCESSES IS EXPECTED TO BE BETTER THAN THE ESTIMATE
          PRINTED HERE.
      (5) THE UPPER LIMIT OF MEMORY THAT CAN BE ALLOCATED BY ABAQUS WILL IN GENERAL DEPEND ON THE VALUE OF
          THE "MEMORY" PARAMETER AND THE AMOUNT OF PHYSICAL MEMORY AVAILABLE ON THE MACHINE. PLEASE SEE
          THE "ABAQUS ANALYSIS USER'S MANUAL" FOR MORE DETAILS. THE ACTUAL USAGE OF MEMORY AND OF DISK
          SPACE FOR SCRATCH DATA WILL DEPEND ON THIS UPPER LIMIT AS WELL AS THE MEMORY REQUIRED TO MINIMIZE
          I/O. IF THE MEMORY UPPER LIMIT IS GREATER THAN THE MEMORY REQUIRED TO MINIMIZE I/O, THEN THE ACTUAL
          MEMORY USAGE WILL BE CLOSE TO THE ESTIMATED "MEMORY TO MINIMIZE I/O" VALUE, AND THE SCRATCH DISK
          USAGE WILL BE CLOSE-TO-ZERO; OTHERWISE, THE ACTUAL MEMORY USED WILL BE CLOSE TO THE PREVIOUSLY
          MENTIONED MEMORY LIMIT, AND THE SCRATCH DISK USAGE WILL BE ROUGHLY PROPORTIONAL TO THE DIFFERENCE
          BETWEEN THE ESTIMATED "MEMORY TO MINIMIZE I/O" AND THE MEMORY UPPER LIMIT. HOWEVER ACCURATE
          ESTIMATE OF THE SCRATCH DISK SPACE IS NOT POSSIBLE.
      (6) USING "*RESTART, WRITE" CAN GENERATE A LARGE AMOUNT OF DATA WRITTEN IN THE WORK DIRECTORY.
1

   Abaqus 2020                                  Date 16-Jun-2021   Time 23:09:24
   For use by PURDUE UNIVERSITY under license from Dassault Systemes or its subsidiary.

                                                                                               STEP    3  INCREMENT    1
                                                                                          TIME COMPLETED IN THIS STEP   0.00    


                        S T E P       3     S T A T I C   A N A L Y S I S


                                                                                          

     AUTOMATIC TIME CONTROL WITH -
          A SUGGESTED INITIAL TIME INCREMENT OF                 1.00    
          AND A TOTAL TIME PERIOD OF                            10.0    
          THE MINIMUM TIME INCREMENT ALLOWED IS                1.000E-04
          THE MAXIMUM TIME INCREMENT ALLOWED IS                 1.00    

     LINEAR EQUATION SOLVER TYPE         DIRECT SPARSE

          LARGE DISPLACEMENT THEORY WILL BE USED
  
                   M E M O R Y   E S T I M A T E
  
 PROCESS      FLOATING PT       MINIMUM MEMORY        MEMORY TO
              OPERATIONS           REQUIRED          MINIMIZE I/O
             PER ITERATION           (MB)               (MB)
  
     1          6.83E+08               30                 71
  
 NOTE:
      (1) SINCE ABAQUS DOES NOT PRE-ALLOCATE MEMORY AND ONLY ALLOCATES MEMORY AS NEEDED DURING THE ANALYSIS,
          THE MEMORY REQUIREMENT PRINTED HERE CAN ONLY BE VIEWED AS A GENERAL GUIDELINE BASED ON THE BEST
          KNOWLEDGE AVAILABLE AT THE BEGINNING OF A STEP BEFORE THE SOLUTION PROCESS HAS BEGUN.
      (2) THE ESTIMATE IS NORMALLY UPDATED AT THE BEGINNING OF EVERY STEP. IT IS THE MAXIMUM VALUE OF THE
          ESTIMATE FROM THE CURRENT STEP TO THE LAST STEP OF THE ANALYSIS, WITH UNSYMMETRIC SOLUTION TAKEN
          INTO ACCOUNT IF APPLICABLE. 
      (3) SINCE THE ESTIMATE IS BASED ON THE ACTIVE DEGREES OF FREEDOM IN THE FIRST ITERATION OF THE 
          CURRENT STEP, THE MEMORY ESTIMATE MIGHT BE SIGNIFICANTLY DIFFERENT THAN ACTUAL USAGE FOR 
          PROBLEMS WITH SUBSTANTIAL CHANGES IN ACTIVE DEGREES OF FREEDOM BETWEEN STEPS (OR EVEN WITHIN
          THE SAME STEP). EXAMPLES ARE: PROBLEMS WITH SIGNIFICANT CONTACT CHANGES, PROBLEMS WITH MODEL
          CHANGE, PROBLEMS WITH BOTH STATIC STEP AND STEADY STATE DYNAMIC PROCEDURES WHERE ACOUSTIC 
          ELEMENTS WILL ONLY BE ACTIVATED IN THE STEADY STATE DYNAMIC STEPS.
      (4) FOR MULTI-PROCESS EXECUTION, THE ESTIMATED VALUE OF FLOATING POINT OPERATIONS FOR EACH PROCESS
          IS BASED ON AN INITIAL SCHEDULING OF OPERATIONS AND MIGHT NOT REFLECT THE ACTUAL FLOATING 
          POINT OPERATIONS COMPLETED ON EACH PROCESS. OPERATIONS ARE DYNAMICALLY BALANCED DURING EXECUTION, 
          SO THE ACTUAL BALANCE OF OPERATIONS BETWEEN PROCESSES IS EXPECTED TO BE BETTER THAN THE ESTIMATE
          PRINTED HERE.
      (5) THE UPPER LIMIT OF MEMORY THAT CAN BE ALLOCATED BY ABAQUS WILL IN GENERAL DEPEND ON THE VALUE OF
          THE "MEMORY" PARAMETER AND THE AMOUNT OF PHYSICAL MEMORY AVAILABLE ON THE MACHINE. PLEASE SEE
          THE "ABAQUS ANALYSIS USER'S MANUAL" FOR MORE DETAILS. THE ACTUAL USAGE OF MEMORY AND OF DISK
          SPACE FOR SCRATCH DATA WILL DEPEND ON THIS UPPER LIMIT AS WELL AS THE MEMORY REQUIRED TO MINIMIZE
          I/O. IF THE MEMORY UPPER LIMIT IS GREATER THAN THE MEMORY REQUIRED TO MINIMIZE I/O, THEN THE ACTUAL
          MEMORY USAGE WILL BE CLOSE TO THE ESTIMATED "MEMORY TO MINIMIZE I/O" VALUE, AND THE SCRATCH DISK
          USAGE WILL BE CLOSE-TO-ZERO; OTHERWISE, THE ACTUAL MEMORY USED WILL BE CLOSE TO THE PREVIOUSLY
          MENTIONED MEMORY LIMIT, AND THE SCRATCH DISK USAGE WILL BE ROUGHLY PROPORTIONAL TO THE DIFFERENCE
          BETWEEN THE ESTIMATED "MEMORY TO MINIMIZE I/O" AND THE MEMORY UPPER LIMIT. HOWEVER ACCURATE
          ESTIMATE OF THE SCRATCH DISK SPACE IS NOT POSSIBLE.
      (6) USING "*RESTART, WRITE" CAN GENERATE A LARGE AMOUNT OF DATA WRITTEN IN THE WORK DIRECTORY.


          THE ANALYSIS HAS BEEN COMPLETED



                              ANALYSIS COMPLETE
                              WITH   1398 WARNING MESSAGES ON THE DAT FILE
                              AND     307 WARNING MESSAGES ON THE MSG FILE
                                      256 WARNINGS ARE FOR NUMERICAL PROBLEMS
                                       50 WARNINGS ARE FOR NEGATIVE EIGENVALUES



     JOB TIME SUMMARY
       USER TIME (SEC)      =   315.25    
       SYSTEM TIME (SEC)    =   6.6200    
       TOTAL CPU TIME (SEC) =   321.87    
       WALLCLOCK TIME (SEC) =        335
