1

   Abaqus 2020                                  Date 16-Jun-2021   Time 23:04:48
   For use by PURDUE UNIVERSITY under license from Dassault Systemes or its subsidiary.

                                                                                 
                                                                                 
 STEP    1     INCREMENT     1     STEP TIME    0.00    


                        S T E P       1     S T A T I C   A N A L Y S I S


                                                                                          

     AUTOMATIC TIME CONTROL WITH -
          A SUGGESTED INITIAL TIME INCREMENT OF                 1.00    
          AND A TOTAL TIME PERIOD OF                            10.0    
          THE MINIMUM TIME INCREMENT ALLOWED IS                1.000E-04
          THE MAXIMUM TIME INCREMENT ALLOWED IS                 1.00    

     LINEAR EQUATION SOLVER TYPE         DIRECT SPARSE

 CONVERGENCE TOLERANCE PARAMETERS FOR FORCE    
     CRITERION FOR RESIDUAL FORCE     FOR A NONLINEAR PROBLEM          5.000E-03
     CRITERION FOR DISP.    CORRECTION IN A NONLINEAR PROBLEM          1.000E-02
     INITIAL VALUE OF TIME AVERAGE FORCE                               1.000E-02
     AVERAGE FORCE     IS TIME AVERAGE FORCE    
     ALTERNATE CRIT. FOR RESIDUAL FORCE     FOR A NONLINEAR PROBLEM    2.000E-02
     CRITERION FOR ZERO FORCE     RELATIVE TO TIME AVRG. FORCE         1.000E-05
     CRITERION FOR RESIDUAL FORCE     WHEN THERE IS ZERO FLUX          1.000E-05
     CRITERION FOR DISP.    CORRECTION WHEN THERE IS ZERO FLUX         1.000E-03
     CRITERION FOR RESIDUAL FORCE     FOR A LINEAR INCREMENT           1.000E-08
     FIELD CONVERSION RATIO                                             1.00    
     CRITERION FOR ZERO FORCE     REL. TO TIME AVRG. MAX. FORCE        1.000E-05
     CRITERION FOR ZERO DISP.    RELATIVE TO CHARACTERISTIC LENGTH     1.000E-08

 CONVERGENCE TOLERANCE PARAMETERS FOR MOMENT   
     CRITERION FOR RESIDUAL MOMENT    FOR A NONLINEAR PROBLEM          5.000E-03
     CRITERION FOR ROTATION CORRECTION IN A NONLINEAR PROBLEM          1.000E-02
     INITIAL VALUE OF TIME AVERAGE MOMENT                              1.000E-02
     AVERAGE MOMENT    IS TIME AVERAGE MOMENT   
     ALTERNATE CRIT. FOR RESIDUAL MOMENT    FOR A NONLINEAR PROBLEM    2.000E-02
     CRITERION FOR ZERO MOMENT    RELATIVE TO TIME AVRG. MOMENT        1.000E-05
     CRITERION FOR RESIDUAL MOMENT    WHEN THERE IS ZERO FLUX          1.000E-05
     CRITERION FOR ROTATION CORRECTION WHEN THERE IS ZERO FLUX         1.000E-03
     CRITERION FOR RESIDUAL MOMENT    FOR A LINEAR INCREMENT           1.000E-08
     FIELD CONVERSION RATIO                                             1.00    
     CRITERION FOR ZERO MOMENT    REL. TO TIME AVRG. MAX. MOMENT       1.000E-05

 CONVERGENCE TOLERANCE PARAMETERS FOR CAV. VOL.
     CRITERION FOR RESIDUAL CAV. VOL. FOR A NONLINEAR PROBLEM          5.000E-03
     CRITERION FOR H.PRESS. CORRECTION IN A NONLINEAR PROBLEM          1.000E-02
     INITIAL VALUE OF TIME AVERAGE CAV. VOL.                           1.000E-02
     AVERAGE CAV. VOL. IS TIME AVERAGE CAV. VOL.
     ALTERNATE CRIT. FOR RESIDUAL CAV. VOL. FOR A NONLINEAR PROBLEM    2.000E-02
     CRITERION FOR ZERO CAV. VOL. RELATIVE TO TIME AVRG. CAV. VOL.     1.000E-05
     CRITERION FOR RESIDUAL CAV. VOL. WHEN THERE IS ZERO FLUX          1.000E-05
     CRITERION FOR H.PRESS. CORRECTION WHEN THERE IS ZERO FLUX         1.000E-03
     CRITERION FOR RESIDUAL CAV. VOL. FOR A LINEAR INCREMENT           1.000E-08
     FIELD CONVERSION RATIO                                             1.00    
     CRITERION FOR ZERO CAV. VOL. REL. TO TIME AVRG. MAX. CAV. VOL.    1.000E-05

     VOLUMETRIC STRAIN COMPATIBILITY TOLERANCE FOR HYBRID SOLIDS       1.000E-05
     AXIAL STRAIN COMPATIBILITY TOLERANCE FOR HYBRID BEAMS             1.000E-05
     TRANS. SHEAR STRAIN COMPATIBILITY TOLERANCE FOR HYBRID BEAMS      1.000E-05
     SOFT CONTACT CONSTRAINT COMPATIBILITY TOLERANCE FOR P>P0          5.000E-03
     SOFT CONTACT CONSTRAINT COMPATIBILITY TOLERANCE FOR P=0.0         0.100    
     CONTACT FORCE ERROR TOLERANCE FOR CONVERT SDI=YES                 1.00    
     DISPLACEMENT COMPATIBILITY TOLERANCE FOR DCOUP ELEMENTS           1.000E-05
     ROTATION COMPATIBILITY TOLERANCE FOR DCOUP ELEMENTS               1.000E-05

 EQUILIBRIUM WILL BE CHECKED FOR SEVERE DISCONTINUITY ITERATIONS

 TIME INCREMENTATION CONTROL PARAMETERS:
     FIRST EQUILIBRIUM ITERATION FOR CONSECUTIVE DIVERGENCE CHECK              4
     EQUILIBRIUM ITERATION AT WHICH LOG. CONVERGENCE RATE CHECK BEGINS         8
     EQUILIBRIUM ITERATION AFTER WHICH ALTERNATE RESIDUAL IS USED              9
     MAXIMUM EQUILIBRIUM ITERATIONS ALLOWED                                   16
     EQUILIBRIUM ITERATION COUNT FOR CUT-BACK IN NEXT INCREMENT               10
     MAXIMUM EQUILIB. ITERS IN TWO INCREMENTS FOR TIME INCREMENT INCREASE      4
     MAXIMUM ITERATIONS FOR SEVERE DISCONTINUITIES                            50
     MAXIMUM ATTEMPTS ALLOWED IN AN INCREMENT                                  5
     MAXIMUM DISCON. ITERS IN TWO INCREMENTS FOR TIME INCREMENT INCREASE      50
     MAXIMUM CONTACT AUGMENTATIONS FOR *SURFACE BEHAVIOR,AUGMENTED LAGRANGE   50
     CUT-BACK FACTOR AFTER DIVERGENCE                                 0.2500    
     CUT-BACK FACTOR FOR TOO SLOW CONVERGENCE                         0.5000    
     CUT-BACK FACTOR AFTER TOO MANY EQUILIBRIUM ITERATIONS            0.7500    
     CUT-BACK FACTOR AFTER TOO MANY SEVERE DISCONTINUITY ITERATIONS   0.2500    
     CUT-BACK FACTOR AFTER PROBLEMS IN ELEMENT ASSEMBLY               0.2500    
     INCREASE FACTOR AFTER TWO INCREMENTS THAT CONVERGE QUICKLY        1.500    
     MAX. TIME INCREMENT INCREASE FACTOR ALLOWED                       1.500    
     MAX. TIME INCREMENT INCREASE FACTOR ALLOWED (DYNAMICS)            1.250    
     MAX. TIME INCREMENT INCREASE FACTOR ALLOWED (DIFFUSION)           2.000    
     MINIMUM TIME INCREMENT RATIO FOR EXTRAPOLATION TO OCCUR          0.1000    
     MAX. RATIO OF TIME INCREMENT TO STABILITY LIMIT                   1.000    
     FRACTION OF STABILITY LIMIT FOR NEW TIME INCREMENT               0.9500    
     TIME INCREMENT INCREASE FACTOR BEFORE A TIME POINT                1.000    
     GLOBAL STABILIZATION CONTROL IS NOT USED

          PRINT OF INCREMENT NUMBER, TIME, ETC., EVERY    1  INCREMENTS

     THE MAXIMUM NUMBER OF INCREMENTS IN THIS STEP IS                     100

          LARGE DISPLACEMENT THEORY WILL BE USED

     LINEAR EXTRAPOLATION WILL BE USED

     CHARACTERISTIC ELEMENT LENGTH     0.238    

     DETAILS REGARDING ACTUAL SOLUTION WAVEFRONT REQUESTED

     DETAILED OUTPUT OF DIAGNOSTICS TO DATABASE REQUESTED

     PRINT OF INCREMENT NUMBER, TIME, ETC., TO THE MESSAGE FILE EVERY     1  INCREMENTS

     COLLECTING MODEL CONSTRAINT INFORMATION FOR OVERCONSTRAINT CHECKS

     COLLECTING STEP CONSTRAINT INFORMATION FOR OVERCONSTRAINT CHECKS


  INCREMENT     1 STARTS. ATTEMPT NUMBER  1, TIME INCREMENT   1.00    

  NUMBER OF EQUATIONS =     12976     NUMBER OF RHS =    1
  NUMBER OF FLOATING PT. OPERATIONS =  6.83E+08

     CHECK POINT   START OF SOLVER    

     CHECK POINT  END OF SOLVER       

       ELAPSED USER TIME (SEC)      =  0.23000    
       ELAPSED SYSTEM TIME (SEC)    =  5.00000E-02
       ELAPSED TOTAL CPU TIME (SEC) =  0.28000    
       ELAPSED WALLCLOCK TIME (SEC) =          0
 

 ***WARNING: THE SYSTEM MATRIX HAS 2 NEGATIVE EIGENVALUES.

     NEGATIVE EIGENVALUES MEAN THAT THE SYSTEM MATRIX IS NOT 
     POSITIVE DEFINITE:
     FOR EXAMPLE, A BIFURCATION (BUCKLING) LOAD MAY HAVE BEEN EXCEEDED.
 

 ***WARNING: SOLVER PROBLEM. NUMERICAL SINGULARITY WHEN PROCESSING NODE 
             ASSEMBLY.4 D.O.F. 1 RATIO = 317.993E+12  .
 

 ***WARNING: SOLVER PROBLEM. NUMERICAL SINGULARITY WHEN PROCESSING NODE 
             ASSEMBLY.4 D.O.F. 2 RATIO = 90.3428E+12 .
 

 ***WARNING: SOLVER PROBLEM. NUMERICAL SINGULARITY WHEN PROCESSING NODE 
             ASSEMBLY.4 D.O.F. 3 RATIO = 90.8235E+12 .

               CONVERGENCE CHECKS FOR EQUILIBRIUM ITERATION     1


 AVERAGE FORCE                      1.228E-04   TIME AVG. FORCE       1.228E-04
 LARGEST RESIDUAL FORCE             5.789E-03   AT NODE          4   DOF  3
   INSTANCE:                                                                                 
 LARGEST INCREMENT OF DISP.          3.27       AT NODE       2450   DOF  3
   INSTANCE: SE_SKIN-1                                                                       
 LARGEST CORRECTION TO DISP.         3.27       AT NODE       2450   DOF  3
   INSTANCE: SE_SKIN-1                                                                       
          FORCE     EQUILIBRIUM NOT ACHIEVED WITHIN TOLERANCE.

 AVERAGE MOMENT                      0.00       TIME AVG. MOMENT      1.000E-02
 LARGEST RESIDUAL MOMENT            2.894E-02   AT NODE          4   DOF  4
   INSTANCE:                                                                                 
 LARGEST INCREMENT OF ROTATION      2.210E-12   AT NODE          4   DOF  4
   INSTANCE: {assembly node}                                                                 
 LARGEST CORRECTION TO ROTATION     2.210E-12   AT NODE          4   DOF  4
   INSTANCE: {assembly node}                                                                 
          ALL ROTATION CORRECTIONS ARE ZERO
          THE MOMENT    IS ZERO EVERYWHERE BUT THE MOMENT    RESIDUAL OR
          THE ROTATION CORRECTION IS NON-ZERO

 AVERAGE CAV. VOL.                  1.333E-02   TIME AVG. CAV. VOL.   1.333E-02
 ALL CAV. VOL. RESIDUALS ARE ZERO
 LARGEST INCREMENT OF H.PRESS.      1.000E-05   AT NODE          3   DOF  8
   INSTANCE: {assembly node}                                                                 
 LARGEST CORRECTION TO H.PRESS.     1.000E-05   AT NODE          3   DOF  8
   INSTANCE: {assembly node}                                                                 
          THE CAV. VOL. EQUILIBRIUM RESPONSE WAS LINEAR IN THIS INCREMENT

  NUMBER OF EQUATIONS =     12976     NUMBER OF RHS =    1
  NUMBER OF FLOATING PT. OPERATIONS =  6.83E+08

     CHECK POINT   START OF SOLVER    

     CHECK POINT  END OF SOLVER       

       ELAPSED USER TIME (SEC)      =  0.22000    
       ELAPSED SYSTEM TIME (SEC)    =  5.00000E-02
       ELAPSED TOTAL CPU TIME (SEC) =  0.27000    
       ELAPSED WALLCLOCK TIME (SEC) =          0
 

 ***WARNING: THE SYSTEM MATRIX HAS 1702 NEGATIVE EIGENVALUES.
             EXPLANATIONS ARE SUGGESTED AFTER THE FIRST OCCURRENCE OF THIS MESSAGE.
 

 ***WARNING: SOLVER PROBLEM. NUMERICAL SINGULARITY WHEN PROCESSING NODE 
             ASSEMBLY.4 D.O.F. 1 RATIO = 8.02410E+12.
 

 ***WARNING: SOLVER PROBLEM. NUMERICAL SINGULARITY WHEN PROCESSING NODE 
             ASSEMBLY.4 D.O.F. 2 RATIO = 5.22705E+12.
 

 ***WARNING: SOLVER PROBLEM. NUMERICAL SINGULARITY WHEN PROCESSING NODE 
             ASSEMBLY.4 D.O.F. 3 RATIO = 17.3476E+12 .
   ELEMENT SE_SKIN-1.6 IS DISTORTING EXCESSIVELY.
   ELEMENT SE_SKIN-1.6 IS DISTORTING EXCESSIVELY.
   ELEMENT SE_SKIN-1.6 IS DISTORTING EXCESSIVELY.
   ELEMENT SE_SKIN-1.7 IS DISTORTING EXCESSIVELY.
   ELEMENT SE_SKIN-1.7 IS DISTORTING EXCESSIVELY.
   ELEMENT SE_SKIN-1.7 IS DISTORTING EXCESSIVELY.
   ELEMENT SE_SKIN-1.8 IS DISTORTING EXCESSIVELY.
   ELEMENT SE_SKIN-1.8 IS DISTORTING EXCESSIVELY.
   ELEMENT SE_SKIN-1.8 IS DISTORTING EXCESSIVELY.
   ELEMENT SE_SKIN-1.8 IS DISTORTING EXCESSIVELY.
   ELEMENT SE_SKIN-1.8 IS DISTORTING EXCESSIVELY.
   ELEMENT SE_SKIN-1.9 IS DISTORTING EXCESSIVELY.
   ELEMENT SE_SKIN-1.9 IS DISTORTING EXCESSIVELY.
   ELEMENT SE_SKIN-1.9 IS DISTORTING EXCESSIVELY.
   ELEMENT SE_SKIN-1.9 IS DISTORTING EXCESSIVELY.
   ELEMENT SE_SKIN-1.9 IS DISTORTING EXCESSIVELY.
   ELEMENT SE_SKIN-1.9 IS DISTORTING EXCESSIVELY.
   ELEMENT SE_SKIN-1.9 IS DISTORTING EXCESSIVELY.
   ELEMENT SE_SKIN-1.9 IS DISTORTING EXCESSIVELY.
   ELEMENT SE_SKIN-1.10 IS DISTORTING EXCESSIVELY.
   ELEMENT SE_SKIN-1.10 IS DISTORTING EXCESSIVELY.
   ELEMENT SE_SKIN-1.10 IS DISTORTING EXCESSIVELY.
   ELEMENT SE_SKIN-1.10 IS DISTORTING EXCESSIVELY.
   ELEMENT SE_SKIN-1.10 IS DISTORTING EXCESSIVELY.
   ELEMENT SE_SKIN-1.10 IS DISTORTING EXCESSIVELY.
   ELEMENT SE_SKIN-1.10 IS DISTORTING EXCESSIVELY.
   ELEMENT SE_SKIN-1.11 IS DISTORTING EXCESSIVELY.
   ELEMENT SE_SKIN-1.11 IS DISTORTING EXCESSIVELY.
   ELEMENT SE_SKIN-1.11 IS DISTORTING EXCESSIVELY.
   ELEMENT SE_SKIN-1.11 IS DISTORTING EXCESSIVELY.
   ELEMENT SE_SKIN-1.11 IS DISTORTING EXCESSIVELY.
   ELEMENT SE_SKIN-1.12 IS DISTORTING EXCESSIVELY.
   ELEMENT SE_SKIN-1.12 IS DISTORTING EXCESSIVELY.
   ELEMENT SE_SKIN-1.12 IS DISTORTING EXCESSIVELY.
   ELEMENT SE_SKIN-1.12 IS DISTORTING EXCESSIVELY.
   ELEMENT SE_SKIN-1.12 IS DISTORTING EXCESSIVELY.
   ELEMENT SE_SKIN-1.13 IS DISTORTING EXCESSIVELY.
   ELEMENT SE_SKIN-1.13 IS DISTORTING EXCESSIVELY.
   ELEMENT SE_SKIN-1.13 IS DISTORTING EXCESSIVELY.
   ELEMENT SE_SKIN-1.13 IS DISTORTING EXCESSIVELY.
   ELEMENT SE_SKIN-1.13 IS DISTORTING EXCESSIVELY.
   ELEMENT SE_SKIN-1.13 IS DISTORTING EXCESSIVELY.
   ELEMENT SE_SKIN-1.14 IS DISTORTING EXCESSIVELY.
   ELEMENT SE_SKIN-1.14 IS DISTORTING EXCESSIVELY.
   ELEMENT SE_SKIN-1.14 IS DISTORTING EXCESSIVELY.
   ELEMENT SE_SKIN-1.15 IS DISTORTING EXCESSIVELY.
   ELEMENT SE_SKIN-1.15 IS DISTORTING EXCESSIVELY.
   ELEMENT SE_SKIN-1.15 IS DISTORTING EXCESSIVELY.
   ELEMENT SE_SKIN-1.16 IS DISTORTING EXCESSIVELY.
   ELEMENT SE_SKIN-1.16 IS DISTORTING EXCESSIVELY.
   ELEMENT SE_SKIN-1.16 IS DISTORTING EXCESSIVELY.
   ELEMENT SE_SKIN-1.16 IS DISTORTING EXCESSIVELY.
   ELEMENT SE_SKIN-1.17 IS DISTORTING EXCESSIVELY.
   ELEMENT SE_SKIN-1.17 IS DISTORTING EXCESSIVELY.
   ELEMENT SE_SKIN-1.17 IS DISTORTING EXCESSIVELY.
   ELEMENT SE_SKIN-1.17 IS DISTORTING EXCESSIVELY.
   ELEMENT SE_SKIN-1.18 IS DISTORTING EXCESSIVELY.
   ELEMENT SE_SKIN-1.18 IS DISTORTING EXCESSIVELY.
   ELEMENT SE_SKIN-1.18 IS DISTORTING EXCESSIVELY.
   ELEMENT SE_SKIN-1.19 IS DISTORTING EXCESSIVELY.
   ELEMENT SE_SKIN-1.19 IS DISTORTING EXCESSIVELY.
   ELEMENT SE_SKIN-1.19 IS DISTORTING EXCESSIVELY.
   ELEMENT SE_SKIN-1.20 IS DISTORTING EXCESSIVELY.
   ELEMENT SE_SKIN-1.20 IS DISTORTING EXCESSIVELY.
   ELEMENT SE_SKIN-1.20 IS DISTORTING EXCESSIVELY.
   ELEMENT SE_SKIN-1.20 IS DISTORTING EXCESSIVELY.
   ELEMENT SE_SKIN-1.20 IS DISTORTING EXCESSIVELY.
   ELEMENT SE_SKIN-1.20 IS DISTORTING EXCESSIVELY.
   ELEMENT SE_SKIN-1.21 IS DISTORTING EXCESSIVELY.
   ELEMENT SE_SKIN-1.21 IS DISTORTING EXCESSIVELY.
   ELEMENT SE_SKIN-1.21 IS DISTORTING EXCESSIVELY.
   ELEMENT SE_SKIN-1.21 IS DISTORTING EXCESSIVELY.
   ELEMENT SE_SKIN-1.21 IS DISTORTING EXCESSIVELY.
   ELEMENT SE_SKIN-1.22 IS DISTORTING EXCESSIVELY.
   ELEMENT SE_SKIN-1.22 IS DISTORTING EXCESSIVELY.
   ELEMENT SE_SKIN-1.22 IS DISTORTING EXCESSIVELY.
   ELEMENT SE_SKIN-1.22 IS DISTORTING EXCESSIVELY.
   ELEMENT SE_SKIN-1.22 IS DISTORTING EXCESSIVELY.
   ELEMENT SE_SKIN-1.23 IS DISTORTING EXCESSIVELY.
   ELEMENT SE_SKIN-1.23 IS DISTORTING EXCESSIVELY.
   ELEMENT SE_SKIN-1.23 IS DISTORTING EXCESSIVELY.
   ELEMENT SE_SKIN-1.23 IS DISTORTING EXCESSIVELY.
   ELEMENT SE_SKIN-1.23 IS DISTORTING EXCESSIVELY.
   ELEMENT SE_SKIN-1.23 IS DISTORTING EXCESSIVELY.
   ELEMENT SE_SKIN-1.23 IS DISTORTING EXCESSIVELY.
   ELEMENT SE_SKIN-1.24 IS DISTORTING EXCESSIVELY.
   ELEMENT SE_SKIN-1.24 IS DISTORTING EXCESSIVELY.
   ELEMENT SE_SKIN-1.24 IS DISTORTING EXCESSIVELY.
   ELEMENT SE_SKIN-1.24 IS DISTORTING EXCESSIVELY.
   ELEMENT SE_SKIN-1.24 IS DISTORTING EXCESSIVELY.
   ELEMENT SE_SKIN-1.24 IS DISTORTING EXCESSIVELY.
   ELEMENT SE_SKIN-1.24 IS DISTORTING EXCESSIVELY.
   ELEMENT SE_SKIN-1.24 IS DISTORTING EXCESSIVELY.
   ELEMENT SE_SKIN-1.25 IS DISTORTING EXCESSIVELY.
   ELEMENT SE_SKIN-1.25 IS DISTORTING EXCESSIVELY.
   ELEMENT SE_SKIN-1.25 IS DISTORTING EXCESSIVELY.
   ELEMENT SE_SKIN-1.25 IS DISTORTING EXCESSIVELY.
   ELEMENT SE_SKIN-1.25 IS DISTORTING EXCESSIVELY.
   ELEMENT SE_SKIN-1.26 IS DISTORTING EXCESSIVELY.
   ELEMENT SE_SKIN-1.26 IS DISTORTING EXCESSIVELY.
   ELEMENT SE_SKIN-1.26 IS DISTORTING EXCESSIVELY.
   ELEMENT SE_SKIN-1.27 IS DISTORTING EXCESSIVELY.
   ELEMENT SE_SKIN-1.27 IS DISTORTING EXCESSIVELY.
   ELEMENT SE_SKIN-1.27 IS DISTORTING EXCESSIVELY.
   ELEMENT SE_SKIN-1.37 IS DISTORTING EXCESSIVELY.
   ELEMENT SE_SKIN-1.37 IS DISTORTING EXCESSIVELY.
   ELEMENT SE_SKIN-1.37 IS DISTORTING EXCESSIVELY.
   ELEMENT SE_SKIN-1.37 IS DISTORTING EXCESSIVELY.
   ELEMENT SE_SKIN-1.37 IS DISTORTING EXCESSIVELY.
   ELEMENT SE_SKIN-1.38 IS DISTORTING EXCESSIVELY.
   ELEMENT SE_SKIN-1.38 IS DISTORTING EXCESSIVELY.
   ELEMENT SE_SKIN-1.38 IS DISTORTING EXCESSIVELY.
   ELEMENT SE_SKIN-1.38 IS DISTORTING EXCESSIVELY.
   ELEMENT SE_SKIN-1.38 IS DISTORTING EXCESSIVELY.
   ELEMENT SE_SKIN-1.38 IS DISTORTING EXCESSIVELY.
   ELEMENT SE_SKIN-1.39 IS DISTORTING EXCESSIVELY.
   ELEMENT SE_SKIN-1.39 IS DISTORTING EXCESSIVELY.
   ELEMENT SE_SKIN-1.40 IS DISTORTING EXCESSIVELY.
   ELEMENT SE_SKIN-1.40 IS DISTORTING EXCESSIVELY.
   ELEMENT SE_SKIN-1.40 IS DISTORTING EXCESSIVELY.
   ELEMENT SE_SKIN-1.40 IS DISTORTING EXCESSIVELY.
   ELEMENT SE_SKIN-1.40 IS DISTORTING EXCESSIVELY.
   ELEMENT SE_SKIN-1.41 IS DISTORTING EXCESSIVELY.
   ELEMENT SE_SKIN-1.41 IS DISTORTING EXCESSIVELY.
   ELEMENT SE_SKIN-1.41 IS DISTORTING EXCESSIVELY.
   ELEMENT SE_SKIN-1.41 IS DISTORTING EXCESSIVELY.
   ELEMENT SE_SKIN-1.41 IS DISTORTING EXCESSIVELY.
   ELEMENT SE_SKIN-1.42 IS DISTORTING EXCESSIVELY.
   ELEMENT SE_SKIN-1.42 IS DISTORTING EXCESSIVELY.
   ELEMENT SE_SKIN-1.42 IS DISTORTING EXCESSIVELY.
   ELEMENT SE_SKIN-1.43 IS DISTORTING EXCESSIVELY.
   ELEMENT SE_SKIN-1.43 IS DISTORTING EXCESSIVELY.
   ELEMENT SE_SKIN-1.43 IS DISTORTING EXCESSIVELY.
   ELEMENT SE_SKIN-1.43 IS DISTORTING EXCESSIVELY.
   ELEMENT SE_SKIN-1.44 IS DISTORTING EXCESSIVELY.
   ELEMENT SE_SKIN-1.44 IS DISTORTING EXCESSIVELY.
   ELEMENT SE_SKIN-1.45 IS DISTORTING EXCESSIVELY.
   ELEMENT SE_SKIN-1.45 IS DISTORTING EXCESSIVELY.
   ELEMENT SE_SKIN-1.45 IS DISTORTING EXCESSIVELY.
   ELEMENT SE_SKIN-1.45 IS DISTORTING EXCESSIVELY.
   ELEMENT SE_SKIN-1.45 IS DISTORTING EXCESSIVELY.
   ELEMENT SE_SKIN-1.45 IS DISTORTING EXCESSIVELY.
   ELEMENT SE_SKIN-1.46 IS DISTORTING EXCESSIVELY.
   ELEMENT SE_SKIN-1.46 IS DISTORTING EXCESSIVELY.
   ELEMENT SE_SKIN-1.46 IS DISTORTING EXCESSIVELY.
   ELEMENT SE_SKIN-1.46 IS DISTORTING EXCESSIVELY.
   ELEMENT SE_SKIN-1.46 IS DISTORTING EXCESSIVELY.
   ELEMENT SE_SKIN-1.46 IS DISTORTING EXCESSIVELY.
   ELEMENT SE_SKIN-1.46 IS DISTORTING EXCESSIVELY.
   ELEMENT SE_SKIN-1.47 IS DISTORTING EXCESSIVELY.
   ELEMENT SE_SKIN-1.47 IS DISTORTING EXCESSIVELY.
   ELEMENT SE_SKIN-1.47 IS DISTORTING EXCESSIVELY.
   ELEMENT SE_SKIN-1.47 IS DISTORTING EXCESSIVELY.
   ELEMENT SE_SKIN-1.47 IS DISTORTING EXCESSIVELY.
   ELEMENT SE_SKIN-1.47 IS DISTORTING EXCESSIVELY.
   ELEMENT SE_SKIN-1.47 IS DISTORTING EXCESSIVELY.
   ELEMENT SE_SKIN-1.47 IS DISTORTING EXCESSIVELY.
   ELEMENT SE_SKIN-1.48 IS DISTORTING EXCESSIVELY.
   ELEMENT SE_SKIN-1.48 IS DISTORTING EXCESSIVELY.
   ELEMENT SE_SKIN-1.48 IS DISTORTING EXCESSIVELY.
   ELEMENT SE_SKIN-1.49 IS DISTORTING EXCESSIVELY.
   ELEMENT SE_SKIN-1.49 IS DISTORTING EXCESSIVELY.
   ELEMENT SE_SKIN-1.49 IS DISTORTING EXCESSIVELY.
   ELEMENT SE_SKIN-1.50 IS DISTORTING EXCESSIVELY.
   ELEMENT SE_SKIN-1.50 IS DISTORTING EXCESSIVELY.
   ELEMENT SE_SKIN-1.50 IS DISTORTING EXCESSIVELY.
   ELEMENT SE_SKIN-1.50 IS DISTORTING EXCESSIVELY.
   ELEMENT SE_SKIN-1.50 IS DISTORTING EXCESSIVELY.
   ELEMENT SE_SKIN-1.50 IS DISTORTING EXCESSIVELY.
   ELEMENT SE_SKIN-1.50 IS DISTORTING EXCESSIVELY.
   ELEMENT SE_SKIN-1.50 IS DISTORTING EXCESSIVELY.
   ELEMENT SE_SKIN-1.51 IS DISTORTING EXCESSIVELY.
   ELEMENT SE_SKIN-1.51 IS DISTORTING EXCESSIVELY.
   ELEMENT SE_SKIN-1.51 IS DISTORTING EXCESSIVELY.
   ELEMENT SE_SKIN-1.51 IS DISTORTING EXCESSIVELY.
   ELEMENT SE_SKIN-1.51 IS DISTORTING EXCESSIVELY.
   ELEMENT SE_SKIN-1.51 IS DISTORTING EXCESSIVELY.
   ELEMENT SE_SKIN-1.51 IS DISTORTING EXCESSIVELY.
   ELEMENT SE_SKIN-1.52 IS DISTORTING EXCESSIVELY.
   ELEMENT SE_SKIN-1.52 IS DISTORTING EXCESSIVELY.
   ELEMENT SE_SKIN-1.52 IS DISTORTING EXCESSIVELY.
   ELEMENT SE_SKIN-1.52 IS DISTORTING EXCESSIVELY.
   ELEMENT SE_SKIN-1.52 IS DISTORTING EXCESSIVELY.
   ELEMENT SE_SKIN-1.52 IS DISTORTING EXCESSIVELY.
   ELEMENT SE_SKIN-1.53 IS DISTORTING EXCESSIVELY.
   ELEMENT SE_SKIN-1.53 IS DISTORTING EXCESSIVELY.
   ELEMENT SE_SKIN-1.54 IS DISTORTING EXCESSIVELY.
   ELEMENT SE_SKIN-1.54 IS DISTORTING EXCESSIVELY.
   ELEMENT SE_SKIN-1.54 IS DISTORTING EXCESSIVELY.
   ELEMENT SE_SKIN-1.54 IS DISTORTING EXCESSIVELY.
   ELEMENT SE_SKIN-1.55 IS DISTORTING EXCESSIVELY.
   ELEMENT SE_SKIN-1.55 IS DISTORTING EXCESSIVELY.
   ELEMENT SE_SKIN-1.55 IS DISTORTING EXCESSIVELY.
   ELEMENT SE_SKIN-1.56 IS DISTORTING EXCESSIVELY.
   ELEMENT SE_SKIN-1.56 IS DISTORTING EXCESSIVELY.
   ELEMENT SE_SKIN-1.56 IS DISTORTING EXCESSIVELY.
   ELEMENT SE_SKIN-1.56 IS DISTORTING EXCESSIVELY.
   ELEMENT SE_SKIN-1.56 IS DISTORTING EXCESSIVELY.
   ELEMENT SE_SKIN-1.57 IS DISTORTING EXCESSIVELY.
   ELEMENT SE_SKIN-1.57 IS DISTORTING EXCESSIVELY.
   ELEMENT SE_SKIN-1.57 IS DISTORTING EXCESSIVELY.
   ELEMENT SE_SKIN-1.57 IS DISTORTING EXCESSIVELY.
   ELEMENT SE_SKIN-1.57 IS DISTORTING EXCESSIVELY.
   ELEMENT SE_SKIN-1.58 IS DISTORTING EXCESSIVELY.
   ELEMENT SE_SKIN-1.58 IS DISTORTING EXCESSIVELY.
   ELEMENT SE_SKIN-1.59 IS DISTORTING EXCESSIVELY.
   ELEMENT SE_SKIN-1.59 IS DISTORTING EXCESSIVELY.
   ELEMENT SE_SKIN-1.59 IS DISTORTING EXCESSIVELY.
   ELEMENT SE_SKIN-1.59 IS DISTORTING EXCESSIVELY.
   ELEMENT SE_SKIN-1.59 IS DISTORTING EXCESSIVELY.
   ELEMENT SE_SKIN-1.59 IS DISTORTING EXCESSIVELY.
   ELEMENT SE_SKIN-1.60 IS DISTORTING EXCESSIVELY.
   ELEMENT SE_SKIN-1.60 IS DISTORTING EXCESSIVELY.
   ELEMENT SE_SKIN-1.60 IS DISTORTING EXCESSIVELY.
   ELEMENT SE_SKIN-1.60 IS DISTORTING EXCESSIVELY.
   ELEMENT SE_SKIN-1.60 IS DISTORTING EXCESSIVELY.
   ELEMENT SE_SKIN-1.67 IS DISTORTING EXCESSIVELY.
   ELEMENT SE_SKIN-1.67 IS DISTORTING EXCESSIVELY.
   ELEMENT SE_SKIN-1.67 IS DISTORTING EXCESSIVELY.
   ELEMENT SE_SKIN-1.67 IS DISTORTING EXCESSIVELY.
   ELEMENT SE_SKIN-1.68 IS DISTORTING EXCESSIVELY.
   ELEMENT SE_SKIN-1.68 IS DISTORTING EXCESSIVELY.
   ELEMENT SE_SKIN-1.68 IS DISTORTING EXCESSIVELY.
   ELEMENT SE_SKIN-1.68 IS DISTORTING EXCESSIVELY.
   ELEMENT SE_SKIN-1.69 IS DISTORTING EXCESSIVELY.
   ELEMENT SE_SKIN-1.69 IS DISTORTING EXCESSIVELY.
   ELEMENT SE_SKIN-1.69 IS DISTORTING EXCESSIVELY.
   ELEMENT SE_SKIN-1.69 IS DISTORTING EXCESSIVELY.
   ELEMENT SE_SKIN-1.69 IS DISTORTING EXCESSIVELY.
   ELEMENT SE_SKIN-1.69 IS DISTORTING EXCESSIVELY.
   ELEMENT SE_SKIN-1.69 IS DISTORTING EXCESSIVELY.
   ELEMENT SE_SKIN-1.70 IS DISTORTING EXCESSIVELY.
   ELEMENT SE_SKIN-1.70 IS DISTORTING EXCESSIVELY.
   ELEMENT SE_SKIN-1.70 IS DISTORTING EXCESSIVELY.
   ELEMENT SE_SKIN-1.70 IS DISTORTING EXCESSIVELY.
   ELEMENT SE_SKIN-1.70 IS DISTORTING EXCESSIVELY.
   ELEMENT SE_SKIN-1.71 IS DISTORTING EXCESSIVELY.
   ELEMENT SE_SKIN-1.71 IS DISTORTING EXCESSIVELY.
   ELEMENT SE_SKIN-1.71 IS DISTORTING EXCESSIVELY.
   ELEMENT SE_SKIN-1.71 IS DISTORTING EXCESSIVELY.
   ELEMENT SE_SKIN-1.72 IS DISTORTING EXCESSIVELY.
   ELEMENT SE_SKIN-1.72 IS DISTORTING EXCESSIVELY.
   ELEMENT SE_SKIN-1.72 IS DISTORTING EXCESSIVELY.
   ELEMENT SE_SKIN-1.73 IS DISTORTING EXCESSIVELY.
   ELEMENT SE_SKIN-1.73 IS DISTORTING EXCESSIVELY.
   ELEMENT SE_SKIN-1.73 IS DISTORTING EXCESSIVELY.
   ELEMENT SE_SKIN-1.73 IS DISTORTING EXCESSIVELY.
   ELEMENT SE_SKIN-1.74 IS DISTORTING EXCESSIVELY.
   ELEMENT SE_SKIN-1.74 IS DISTORTING EXCESSIVELY.
   ELEMENT SE_SKIN-1.74 IS DISTORTING EXCESSIVELY.
   ELEMENT SE_SKIN-1.75 IS DISTORTING EXCESSIVELY.
   ELEMENT SE_SKIN-1.75 IS DISTORTING EXCESSIVELY.
   ELEMENT SE_SKIN-1.75 IS DISTORTING EXCESSIVELY.
   ELEMENT SE_SKIN-1.75 IS DISTORTING EXCESSIVELY.
   ELEMENT SE_SKIN-1.75 IS DISTORTING EXCESSIVELY.
   ELEMENT SE_SKIN-1.75 IS DISTORTING EXCESSIVELY.
   ELEMENT SE_SKIN-1.75 IS DISTORTING EXCESSIVELY.
   ELEMENT SE_SKIN-1.76 IS DISTORTING EXCESSIVELY.
   ELEMENT SE_SKIN-1.76 IS DISTORTING EXCESSIVELY.
   ELEMENT SE_SKIN-1.76 IS DISTORTING EXCESSIVELY.
   ELEMENT SE_SKIN-1.77 IS DISTORTING EXCESSIVELY.
   ELEMENT SE_SKIN-1.77 IS DISTORTING EXCESSIVELY.
   ELEMENT SE_SKIN-1.77 IS DISTORTING EXCESSIVELY.
   ELEMENT SE_SKIN-1.77 IS DISTORTING EXCESSIVELY.
   ELEMENT SE_SKIN-1.78 IS DISTORTING EXCESSIVELY.
   ELEMENT SE_SKIN-1.78 IS DISTORTING EXCESSIVELY.
   ELEMENT SE_SKIN-1.78 IS DISTORTING EXCESSIVELY.
   ELEMENT SE_SKIN-1.78 IS DISTORTING EXCESSIVELY.
   ELEMENT SE_SKIN-1.78 IS DISTORTING EXCESSIVELY.
   ELEMENT SE_SKIN-1.79 IS DISTORTING EXCESSIVELY.
   ELEMENT SE_SKIN-1.79 IS DISTORTING EXCESSIVELY.
   ELEMENT SE_SKIN-1.80 IS DISTORTING EXCESSIVELY.
   ELEMENT SE_SKIN-1.80 IS DISTORTING EXCESSIVELY.
   ELEMENT SE_SKIN-1.80 IS DISTORTING EXCESSIVELY.
   ELEMENT SE_SKIN-1.80 IS DISTORTING EXCESSIVELY.
   ELEMENT SE_SKIN-1.80 IS DISTORTING EXCESSIVELY.
   ELEMENT SE_SKIN-1.81 IS DISTORTING EXCESSIVELY.
   ELEMENT SE_SKIN-1.81 IS DISTORTING EXCESSIVELY.
   ELEMENT SE_SKIN-1.81 IS DISTORTING EXCESSIVELY.
   ELEMENT SE_SKIN-1.81 IS DISTORTING EXCESSIVELY.
   ELEMENT SE_SKIN-1.81 IS DISTORTING EXCESSIVELY.
   ELEMENT SE_SKIN-1.82 IS DISTORTING EXCESSIVELY.
   ELEMENT SE_SKIN-1.82 IS DISTORTING EXCESSIVELY.
   ELEMENT SE_SKIN-1.83 IS DISTORTING EXCESSIVELY.
   ELEMENT SE_SKIN-1.83 IS DISTORTING EXCESSIVELY.
   ELEMENT SE_SKIN-1.83 IS DISTORTING EXCESSIVELY.
   ELEMENT SE_SKIN-1.83 IS DISTORTING EXCESSIVELY.
   ELEMENT SE_SKIN-1.83 IS DISTORTING EXCESSIVELY.
   ELEMENT SE_SKIN-1.84 IS DISTORTING EXCESSIVELY.
   ELEMENT SE_SKIN-1.84 IS DISTORTING EXCESSIVELY.
   ELEMENT SE_SKIN-1.84 IS DISTORTING EXCESSIVELY.
   ELEMENT SE_SKIN-1.84 IS DISTORTING EXCESSIVELY.
   ELEMENT SE_SKIN-1.85 IS DISTORTING EXCESSIVELY.
   ELEMENT SE_SKIN-1.85 IS DISTORTING EXCESSIVELY.
   ELEMENT SE_SKIN-1.85 IS DISTORTING EXCESSIVELY.
   ELEMENT SE_SKIN-1.86 IS DISTORTING EXCESSIVELY.
   ELEMENT SE_SKIN-1.86 IS DISTORTING EXCESSIVELY.
   ELEMENT SE_SKIN-1.86 IS DISTORTING EXCESSIVELY.
   ELEMENT SE_SKIN-1.86 IS DISTORTING EXCESSIVELY.
   ELEMENT SE_SKIN-1.86 IS DISTORTING EXCESSIVELY.
   ELEMENT SE_SKIN-1.86 IS DISTORTING EXCESSIVELY.
   ELEMENT SE_SKIN-1.86 IS DISTORTING EXCESSIVELY.
   ELEMENT SE_SKIN-1.87 IS DISTORTING EXCESSIVELY.
   ELEMENT SE_SKIN-1.87 IS DISTORTING EXCESSIVELY.
   ELEMENT SE_SKIN-1.87 IS DISTORTING EXCESSIVELY.
   ELEMENT SE_SKIN-1.88 IS DISTORTING EXCESSIVELY.
   ELEMENT SE_SKIN-1.88 IS DISTORTING EXCESSIVELY.
   ELEMENT SE_SKIN-1.88 IS DISTORTING EXCESSIVELY.
   ELEMENT SE_SKIN-1.88 IS DISTORTING EXCESSIVELY.
   ELEMENT SE_SKIN-1.89 IS DISTORTING EXCESSIVELY.
   ELEMENT SE_SKIN-1.89 IS DISTORTING EXCESSIVELY.
   ELEMENT SE_SKIN-1.89 IS DISTORTING EXCESSIVELY.
   ELEMENT SE_SKIN-1.90 IS DISTORTING EXCESSIVELY.
   ELEMENT SE_SKIN-1.90 IS DISTORTING EXCESSIVELY.
   ELEMENT SE_SKIN-1.90 IS DISTORTING EXCESSIVELY.
   ELEMENT SE_SKIN-1.90 IS DISTORTING EXCESSIVELY.
   ELEMENT SE_SKIN-1.91 IS DISTORTING EXCESSIVELY.
   ELEMENT SE_SKIN-1.91 IS DISTORTING EXCESSIVELY.
   ELEMENT SE_SKIN-1.91 IS DISTORTING EXCESSIVELY.
   ELEMENT SE_SKIN-1.91 IS DISTORTING EXCESSIVELY.
   ELEMENT SE_SKIN-1.91 IS DISTORTING EXCESSIVELY.
   ELEMENT SE_SKIN-1.92 IS DISTORTING EXCESSIVELY.
   ELEMENT SE_SKIN-1.92 IS DISTORTING EXCESSIVELY.
   ELEMENT SE_SKIN-1.92 IS DISTORTING EXCESSIVELY.
   ELEMENT SE_SKIN-1.92 IS DISTORTING EXCESSIVELY.
   ELEMENT SE_SKIN-1.92 IS DISTORTING EXCESSIVELY.
   ELEMENT SE_SKIN-1.92 IS DISTORTING EXCESSIVELY.
   ELEMENT SE_SKIN-1.92 IS DISTORTING EXCESSIVELY.
   ELEMENT SE_SKIN-1.93 IS DISTORTING EXCESSIVELY.
   ELEMENT SE_SKIN-1.93 IS DISTORTING EXCESSIVELY.
   ELEMENT SE_SKIN-1.93 IS DISTORTING EXCESSIVELY.
   ELEMENT SE_SKIN-1.93 IS DISTORTING EXCESSIVELY.
   ELEMENT SE_SKIN-1.94 IS DISTORTING EXCESSIVELY.
   ELEMENT SE_SKIN-1.94 IS DISTORTING EXCESSIVELY.
   ELEMENT SE_SKIN-1.94 IS DISTORTING EXCESSIVELY.
   ELEMENT SE_SKIN-1.94 IS DISTORTING EXCESSIVELY.
   ELEMENT SE_SKIN-1.99 IS DISTORTING EXCESSIVELY.
   ELEMENT SE_SKIN-1.99 IS DISTORTING EXCESSIVELY.
   ELEMENT SE_SKIN-1.99 IS DISTORTING EXCESSIVELY.
   ELEMENT SE_SKIN-1.99 IS DISTORTING EXCESSIVELY.
   ELEMENT SE_SKIN-1.99 IS DISTORTING EXCESSIVELY.
   ELEMENT SE_SKIN-1.99 IS DISTORTING EXCESSIVELY.
   ELEMENT SE_SKIN-1.99 IS DISTORTING EXCESSIVELY.
   ELEMENT SE_SKIN-1.100 IS DISTORTING EXCESSIVELY.
   ELEMENT SE_SKIN-1.100 IS DISTORTING EXCESSIVELY.
   ELEMENT SE_SKIN-1.100 IS DISTORTING EXCESSIVELY.
   ELEMENT SE_SKIN-1.100 IS DISTORTING EXCESSIVELY.
   ELEMENT SE_SKIN-1.100 IS DISTORTING EXCESSIVELY.
   ELEMENT SE_SKIN-1.101 IS DISTORTING EXCESSIVELY.
   ELEMENT SE_SKIN-1.101 IS DISTORTING EXCESSIVELY.
   ELEMENT SE_SKIN-1.101 IS DISTORTING EXCESSIVELY.
   ELEMENT SE_SKIN-1.101 IS DISTORTING EXCESSIVELY.
   ELEMENT SE_SKIN-1.101 IS DISTORTING EXCESSIVELY.
   ELEMENT SE_SKIN-1.101 IS DISTORTING EXCESSIVELY.
   ELEMENT SE_SKIN-1.101 IS DISTORTING EXCESSIVELY.
   ELEMENT SE_SKIN-1.102 IS DISTORTING EXCESSIVELY.
   ELEMENT SE_SKIN-1.102 IS DISTORTING EXCESSIVELY.
   ELEMENT SE_SKIN-1.102 IS DISTORTING EXCESSIVELY.
   ELEMENT SE_SKIN-1.103 IS DISTORTING EXCESSIVELY.
   ELEMENT SE_SKIN-1.103 IS DISTORTING EXCESSIVELY.
   ELEMENT SE_SKIN-1.103 IS DISTORTING EXCESSIVELY.
   ELEMENT SE_SKIN-1.103 IS DISTORTING EXCESSIVELY.
   ELEMENT SE_SKIN-1.103 IS DISTORTING EXCESSIVELY.
   ELEMENT SE_SKIN-1.103 IS DISTORTING EXCESSIVELY.
   ELEMENT SE_SKIN-1.104 IS DISTORTING EXCESSIVELY.
   ELEMENT SE_SKIN-1.104 IS DISTORTING EXCESSIVELY.
   ELEMENT SE_SKIN-1.104 IS DISTORTING EXCESSIVELY.
   ELEMENT SE_SKIN-1.104 IS DISTORTING EXCESSIVELY.
   ELEMENT SE_SKIN-1.105 IS DISTORTING EXCESSIVELY.
   ELEMENT SE_SKIN-1.106 IS DISTORTING EXCESSIVELY.
   ELEMENT SE_SKIN-1.106 IS DISTORTING EXCESSIVELY.
   ELEMENT SE_SKIN-1.106 IS DISTORTING EXCESSIVELY.
   ELEMENT SE_SKIN-1.106 IS DISTORTING EXCESSIVELY.
   ELEMENT SE_SKIN-1.106 IS DISTORTING EXCESSIVELY.
   ELEMENT SE_SKIN-1.106 IS DISTORTING EXCESSIVELY.
   ELEMENT SE_SKIN-1.107 IS DISTORTING EXCESSIVELY.
   ELEMENT SE_SKIN-1.107 IS DISTORTING EXCESSIVELY.
   ELEMENT SE_SKIN-1.108 IS DISTORTING EXCESSIVELY.
   ELEMENT SE_SKIN-1.108 IS DISTORTING EXCESSIVELY.
   ELEMENT SE_SKIN-1.108 IS DISTORTING EXCESSIVELY.
   ELEMENT SE_SKIN-1.108 IS DISTORTING EXCESSIVELY.
   ELEMENT SE_SKIN-1.108 IS DISTORTING EXCESSIVELY.
   ELEMENT SE_SKIN-1.108 IS DISTORTING EXCESSIVELY.
   ELEMENT SE_SKIN-1.109 IS DISTORTING EXCESSIVELY.
   ELEMENT SE_SKIN-1.109 IS DISTORTING EXCESSIVELY.
   ELEMENT SE_SKIN-1.109 IS DISTORTING EXCESSIVELY.
   ELEMENT SE_SKIN-1.109 IS DISTORTING EXCESSIVELY.
   ELEMENT SE_SKIN-1.109 IS DISTORTING EXCESSIVELY.
   ELEMENT SE_SKIN-1.110 IS DISTORTING EXCESSIVELY.
   ELEMENT SE_SKIN-1.110 IS DISTORTING EXCESSIVELY.
   ELEMENT SE_SKIN-1.110 IS DISTORTING EXCESSIVELY.
   ELEMENT SE_SKIN-1.110 IS DISTORTING EXCESSIVELY.
   ELEMENT SE_SKIN-1.111 IS DISTORTING EXCESSIVELY.
   ELEMENT SE_SKIN-1.111 IS DISTORTING EXCESSIVELY.
   ELEMENT SE_SKIN-1.111 IS DISTORTING EXCESSIVELY.
   ELEMENT SE_SKIN-1.111 IS DISTORTING EXCESSIVELY.
   ELEMENT SE_SKIN-1.111 IS DISTORTING EXCESSIVELY.
   ELEMENT SE_SKIN-1.111 IS DISTORTING EXCESSIVELY.
   ELEMENT SE_SKIN-1.112 IS DISTORTING EXCESSIVELY.
   ELEMENT SE_SKIN-1.112 IS DISTORTING EXCESSIVELY.
   ELEMENT SE_SKIN-1.112 IS DISTORTING EXCESSIVELY.
   ELEMENT SE_SKIN-1.112 IS DISTORTING EXCESSIVELY.
   ELEMENT SE_SKIN-1.113 IS DISTORTING EXCESSIVELY.
   ELEMENT SE_SKIN-1.113 IS DISTORTING EXCESSIVELY.
   ELEMENT SE_SKIN-1.113 IS DISTORTING EXCESSIVELY.
   ELEMENT SE_SKIN-1.113 IS DISTORTING EXCESSIVELY.
   ELEMENT SE_SKIN-1.114 IS DISTORTING EXCESSIVELY.
   ELEMENT SE_SKIN-1.114 IS DISTORTING EXCESSIVELY.
   ELEMENT SE_SKIN-1.114 IS DISTORTING EXCESSIVELY.
   ELEMENT SE_SKIN-1.114 IS DISTORTING EXCESSIVELY.
   ELEMENT SE_SKIN-1.114 IS DISTORTING EXCESSIVELY.
   ELEMENT SE_SKIN-1.114 IS DISTORTING EXCESSIVELY.
   ELEMENT SE_SKIN-1.115 IS DISTORTING EXCESSIVELY.
   ELEMENT SE_SKIN-1.115 IS DISTORTING EXCESSIVELY.
   ELEMENT SE_SKIN-1.115 IS DISTORTING EXCESSIVELY.
   ELEMENT SE_SKIN-1.115 IS DISTORTING EXCESSIVELY.
   ELEMENT SE_SKIN-1.116 IS DISTORTING EXCESSIVELY.
   ELEMENT SE_SKIN-1.116 IS DISTORTING EXCESSIVELY.
   ELEMENT SE_SKIN-1.116 IS DISTORTING EXCESSIVELY.
   ELEMENT SE_SKIN-1.116 IS DISTORTING EXCESSIVELY.
   ELEMENT SE_SKIN-1.116 IS DISTORTING EXCESSIVELY.
   ELEMENT SE_SKIN-1.117 IS DISTORTING EXCESSIVELY.
   ELEMENT SE_SKIN-1.117 IS DISTORTING EXCESSIVELY.
   ELEMENT SE_SKIN-1.117 IS DISTORTING EXCESSIVELY.
   ELEMENT SE_SKIN-1.117 IS DISTORTING EXCESSIVELY.
   ELEMENT SE_SKIN-1.117 IS DISTORTING EXCESSIVELY.
   ELEMENT SE_SKIN-1.117 IS DISTORTING EXCESSIVELY.
   ELEMENT SE_SKIN-1.118 IS DISTORTING EXCESSIVELY.
   ELEMENT SE_SKIN-1.118 IS DISTORTING EXCESSIVELY.
   ELEMENT SE_SKIN-1.119 IS DISTORTING EXCESSIVELY.
   ELEMENT SE_SKIN-1.119 IS DISTORTING EXCESSIVELY.
   ELEMENT SE_SKIN-1.119 IS DISTORTING EXCESSIVELY.
   ELEMENT SE_SKIN-1.119 IS DISTORTING EXCESSIVELY.
   ELEMENT SE_SKIN-1.119 IS DISTORTING EXCESSIVELY.
   ELEMENT SE_SKIN-1.119 IS DISTORTING EXCESSIVELY.
   ELEMENT SE_SKIN-1.120 IS DISTORTING EXCESSIVELY.
   ELEMENT SE_SKIN-1.121 IS DISTORTING EXCESSIVELY.
   ELEMENT SE_SKIN-1.121 IS DISTORTING EXCESSIVELY.
   ELEMENT SE_SKIN-1.121 IS DISTORTING EXCESSIVELY.
   ELEMENT SE_SKIN-1.121 IS DISTORTING EXCESSIVELY.
   ELEMENT SE_SKIN-1.122 IS DISTORTING EXCESSIVELY.
   ELEMENT SE_SKIN-1.122 IS DISTORTING EXCESSIVELY.
   ELEMENT SE_SKIN-1.122 IS DISTORTING EXCESSIVELY.
   ELEMENT SE_SKIN-1.122 IS DISTORTING EXCESSIVELY.
   ELEMENT SE_SKIN-1.122 IS DISTORTING EXCESSIVELY.
   ELEMENT SE_SKIN-1.122 IS DISTORTING EXCESSIVELY.
   ELEMENT SE_SKIN-1.123 IS DISTORTING EXCESSIVELY.
   ELEMENT SE_SKIN-1.123 IS DISTORTING EXCESSIVELY.
   ELEMENT SE_SKIN-1.123 IS DISTORTING EXCESSIVELY.
   ELEMENT SE_SKIN-1.124 IS DISTORTING EXCESSIVELY.
   ELEMENT SE_SKIN-1.124 IS DISTORTING EXCESSIVELY.
   ELEMENT SE_SKIN-1.124 IS DISTORTING EXCESSIVELY.
   ELEMENT SE_SKIN-1.124 IS DISTORTING EXCESSIVELY.
   ELEMENT SE_SKIN-1.124 IS DISTORTING EXCESSIVELY.
   ELEMENT SE_SKIN-1.124 IS DISTORTING EXCESSIVELY.
   ELEMENT SE_SKIN-1.124 IS DISTORTING EXCESSIVELY.
   ELEMENT SE_SKIN-1.125 IS DISTORTING EXCESSIVELY.
   ELEMENT SE_SKIN-1.125 IS DISTORTING EXCESSIVELY.
   ELEMENT SE_SKIN-1.125 IS DISTORTING EXCESSIVELY.
   ELEMENT SE_SKIN-1.125 IS DISTORTING EXCESSIVELY.
   ELEMENT SE_SKIN-1.125 IS DISTORTING EXCESSIVELY.
   ELEMENT SE_SKIN-1.126 IS DISTORTING EXCESSIVELY.
   ELEMENT SE_SKIN-1.126 IS DISTORTING EXCESSIVELY.
   ELEMENT SE_SKIN-1.126 IS DISTORTING EXCESSIVELY.
   ELEMENT SE_SKIN-1.126 IS DISTORTING EXCESSIVELY.
   ELEMENT SE_SKIN-1.126 IS DISTORTING EXCESSIVELY.
   ELEMENT SE_SKIN-1.126 IS DISTORTING EXCESSIVELY.
   ELEMENT SE_SKIN-1.126 IS DISTORTING EXCESSIVELY.
   ELEMENT SE_SKIN-1.130 IS DISTORTING EXCESSIVELY.
   ELEMENT SE_SKIN-1.130 IS DISTORTING EXCESSIVELY.
   ELEMENT SE_SKIN-1.130 IS DISTORTING EXCESSIVELY.
   ELEMENT SE_SKIN-1.131 IS DISTORTING EXCESSIVELY.
   ELEMENT SE_SKIN-1.131 IS DISTORTING EXCESSIVELY.
   ELEMENT SE_SKIN-1.131 IS DISTORTING EXCESSIVELY.
   ELEMENT SE_SKIN-1.132 IS DISTORTING EXCESSIVELY.
   ELEMENT SE_SKIN-1.132 IS DISTORTING EXCESSIVELY.
   ELEMENT SE_SKIN-1.132 IS DISTORTING EXCESSIVELY.
   ELEMENT SE_SKIN-1.133 IS DISTORTING EXCESSIVELY.
   ELEMENT SE_SKIN-1.133 IS DISTORTING EXCESSIVELY.
   ELEMENT SE_SKIN-1.133 IS DISTORTING EXCESSIVELY.
   ELEMENT SE_SKIN-1.133 IS DISTORTING EXCESSIVELY.
   ELEMENT SE_SKIN-1.133 IS DISTORTING EXCESSIVELY.
   ELEMENT SE_SKIN-1.133 IS DISTORTING EXCESSIVELY.
   ELEMENT SE_SKIN-1.133 IS DISTORTING EXCESSIVELY.
   ELEMENT SE_SKIN-1.134 IS DISTORTING EXCESSIVELY.
   ELEMENT SE_SKIN-1.134 IS DISTORTING EXCESSIVELY.
   ELEMENT SE_SKIN-1.134 IS DISTORTING EXCESSIVELY.
   ELEMENT SE_SKIN-1.134 IS DISTORTING EXCESSIVELY.
   ELEMENT SE_SKIN-1.135 IS DISTORTING EXCESSIVELY.
   ELEMENT SE_SKIN-1.135 IS DISTORTING EXCESSIVELY.
   ELEMENT SE_SKIN-1.135 IS DISTORTING EXCESSIVELY.
   ELEMENT SE_SKIN-1.136 IS DISTORTING EXCESSIVELY.
   ELEMENT SE_SKIN-1.136 IS DISTORTING EXCESSIVELY.
   ELEMENT SE_SKIN-1.136 IS DISTORTING EXCESSIVELY.
   ELEMENT SE_SKIN-1.136 IS DISTORTING EXCESSIVELY.
   ELEMENT SE_SKIN-1.137 IS DISTORTING EXCESSIVELY.
   ELEMENT SE_SKIN-1.137 IS DISTORTING EXCESSIVELY.
   ELEMENT SE_SKIN-1.137 IS DISTORTING EXCESSIVELY.
   ELEMENT SE_SKIN-1.137 IS DISTORTING EXCESSIVELY.
   ELEMENT SE_SKIN-1.137 IS DISTORTING EXCESSIVELY.
   ELEMENT SE_SKIN-1.137 IS DISTORTING EXCESSIVELY.
   ELEMENT SE_SKIN-1.138 IS DISTORTING EXCESSIVELY.
   ELEMENT SE_SKIN-1.138 IS DISTORTING EXCESSIVELY.
   ELEMENT SE_SKIN-1.138 IS DISTORTING EXCESSIVELY.
   ELEMENT SE_SKIN-1.139 IS DISTORTING EXCESSIVELY.
   ELEMENT SE_SKIN-1.139 IS DISTORTING EXCESSIVELY.
   ELEMENT SE_SKIN-1.139 IS DISTORTING EXCESSIVELY.
   ELEMENT SE_SKIN-1.139 IS DISTORTING EXCESSIVELY.
   ELEMENT SE_SKIN-1.139 IS DISTORTING EXCESSIVELY.
   ELEMENT SE_SKIN-1.139 IS DISTORTING EXCESSIVELY.
   ELEMENT SE_SKIN-1.140 IS DISTORTING EXCESSIVELY.
   ELEMENT SE_SKIN-1.140 IS DISTORTING EXCESSIVELY.
   ELEMENT SE_SKIN-1.140 IS DISTORTING EXCESSIVELY.
   ELEMENT SE_SKIN-1.140 IS DISTORTING EXCESSIVELY.
   ELEMENT SE_SKIN-1.140 IS DISTORTING EXCESSIVELY.
   ELEMENT SE_SKIN-1.141 IS DISTORTING EXCESSIVELY.
   ELEMENT SE_SKIN-1.141 IS DISTORTING EXCESSIVELY.
   ELEMENT SE_SKIN-1.141 IS DISTORTING EXCESSIVELY.
   ELEMENT SE_SKIN-1.141 IS DISTORTING EXCESSIVELY.
   ELEMENT SE_SKIN-1.142 IS DISTORTING EXCESSIVELY.
   ELEMENT SE_SKIN-1.142 IS DISTORTING EXCESSIVELY.
   ELEMENT SE_SKIN-1.142 IS DISTORTING EXCESSIVELY.
   ELEMENT SE_SKIN-1.142 IS DISTORTING EXCESSIVELY.
   ELEMENT SE_SKIN-1.142 IS DISTORTING EXCESSIVELY.
   ELEMENT SE_SKIN-1.142 IS DISTORTING EXCESSIVELY.
   ELEMENT SE_SKIN-1.143 IS DISTORTING EXCESSIVELY.
   ELEMENT SE_SKIN-1.143 IS DISTORTING EXCESSIVELY.
   ELEMENT SE_SKIN-1.143 IS DISTORTING EXCESSIVELY.
   ELEMENT SE_SKIN-1.143 IS DISTORTING EXCESSIVELY.
   ELEMENT SE_SKIN-1.144 IS DISTORTING EXCESSIVELY.
   ELEMENT SE_SKIN-1.144 IS DISTORTING EXCESSIVELY.
   ELEMENT SE_SKIN-1.144 IS DISTORTING EXCESSIVELY.
   ELEMENT SE_SKIN-1.144 IS DISTORTING EXCESSIVELY.
   ELEMENT SE_SKIN-1.144 IS DISTORTING EXCESSIVELY.
   ELEMENT SE_SKIN-1.145 IS DISTORTING EXCESSIVELY.
   ELEMENT SE_SKIN-1.145 IS DISTORTING EXCESSIVELY.
   ELEMENT SE_SKIN-1.145 IS DISTORTING EXCESSIVELY.
   ELEMENT SE_SKIN-1.145 IS DISTORTING EXCESSIVELY.
   ELEMENT SE_SKIN-1.145 IS DISTORTING EXCESSIVELY.
   ELEMENT SE_SKIN-1.146 IS DISTORTING EXCESSIVELY.
   ELEMENT SE_SKIN-1.146 IS DISTORTING EXCESSIVELY.
   ELEMENT SE_SKIN-1.146 IS DISTORTING EXCESSIVELY.
   ELEMENT SE_SKIN-1.146 IS DISTORTING EXCESSIVELY.
   ELEMENT SE_SKIN-1.147 IS DISTORTING EXCESSIVELY.
   ELEMENT SE_SKIN-1.147 IS DISTORTING EXCESSIVELY.
   ELEMENT SE_SKIN-1.147 IS DISTORTING EXCESSIVELY.
   ELEMENT SE_SKIN-1.147 IS DISTORTING EXCESSIVELY.
   ELEMENT SE_SKIN-1.147 IS DISTORTING EXCESSIVELY.
   ELEMENT SE_SKIN-1.147 IS DISTORTING EXCESSIVELY.
   ELEMENT SE_SKIN-1.148 IS DISTORTING EXCESSIVELY.
   ELEMENT SE_SKIN-1.148 IS DISTORTING EXCESSIVELY.
   ELEMENT SE_SKIN-1.148 IS DISTORTING EXCESSIVELY.
   ELEMENT SE_SKIN-1.148 IS DISTORTING EXCESSIVELY.
   ELEMENT SE_SKIN-1.149 IS DISTORTING EXCESSIVELY.
   ELEMENT SE_SKIN-1.149 IS DISTORTING EXCESSIVELY.
   ELEMENT SE_SKIN-1.149 IS DISTORTING EXCESSIVELY.
   ELEMENT SE_SKIN-1.149 IS DISTORTING EXCESSIVELY.
   ELEMENT SE_SKIN-1.149 IS DISTORTING EXCESSIVELY.
   ELEMENT SE_SKIN-1.150 IS DISTORTING EXCESSIVELY.
   ELEMENT SE_SKIN-1.150 IS DISTORTING EXCESSIVELY.
   ELEMENT SE_SKIN-1.150 IS DISTORTING EXCESSIVELY.
   ELEMENT SE_SKIN-1.150 IS DISTORTING EXCESSIVELY.
   ELEMENT SE_SKIN-1.150 IS DISTORTING EXCESSIVELY.
   ELEMENT SE_SKIN-1.150 IS DISTORTING EXCESSIVELY.
   ELEMENT SE_SKIN-1.151 IS DISTORTING EXCESSIVELY.
   ELEMENT SE_SKIN-1.151 IS DISTORTING EXCESSIVELY.
   ELEMENT SE_SKIN-1.151 IS DISTORTING EXCESSIVELY.
   ELEMENT SE_SKIN-1.152 IS DISTORTING EXCESSIVELY.
   ELEMENT SE_SKIN-1.152 IS DISTORTING EXCESSIVELY.
   ELEMENT SE_SKIN-1.152 IS DISTORTING EXCESSIVELY.
   ELEMENT SE_SKIN-1.152 IS DISTORTING EXCESSIVELY.
   ELEMENT SE_SKIN-1.152 IS DISTORTING EXCESSIVELY.
   ELEMENT SE_SKIN-1.152 IS DISTORTING EXCESSIVELY.
   ELEMENT SE_SKIN-1.153 IS DISTORTING EXCESSIVELY.
   ELEMENT SE_SKIN-1.153 IS DISTORTING EXCESSIVELY.
   ELEMENT SE_SKIN-1.153 IS DISTORTING EXCESSIVELY.
   ELEMENT SE_SKIN-1.153 IS DISTORTING EXCESSIVELY.
   ELEMENT SE_SKIN-1.154 IS DISTORTING EXCESSIVELY.
   ELEMENT SE_SKIN-1.154 IS DISTORTING EXCESSIVELY.
   ELEMENT SE_SKIN-1.154 IS DISTORTING EXCESSIVELY.
   ELEMENT SE_SKIN-1.155 IS DISTORTING EXCESSIVELY.
   ELEMENT SE_SKIN-1.155 IS DISTORTING EXCESSIVELY.
   ELEMENT SE_SKIN-1.155 IS DISTORTING EXCESSIVELY.
   ELEMENT SE_SKIN-1.155 IS DISTORTING EXCESSIVELY.
   ELEMENT SE_SKIN-1.156 IS DISTORTING EXCESSIVELY.
   ELEMENT SE_SKIN-1.156 IS DISTORTING EXCESSIVELY.
   ELEMENT SE_SKIN-1.156 IS DISTORTING EXCESSIVELY.
   ELEMENT SE_SKIN-1.156 IS DISTORTING EXCESSIVELY.
   ELEMENT SE_SKIN-1.156 IS DISTORTING EXCESSIVELY.
   ELEMENT SE_SKIN-1.156 IS DISTORTING EXCESSIVELY.
   ELEMENT SE_SKIN-1.156 IS DISTORTING EXCESSIVELY.
   ELEMENT SE_SKIN-1.157 IS DISTORTING EXCESSIVELY.
   ELEMENT SE_SKIN-1.157 IS DISTORTING EXCESSIVELY.
   ELEMENT SE_SKIN-1.157 IS DISTORTING EXCESSIVELY.
   ELEMENT SE_SKIN-1.158 IS DISTORTING EXCESSIVELY.
   ELEMENT SE_SKIN-1.158 IS DISTORTING EXCESSIVELY.
   ELEMENT SE_SKIN-1.158 IS DISTORTING EXCESSIVELY.
   ELEMENT SE_SKIN-1.159 IS DISTORTING EXCESSIVELY.
   ELEMENT SE_SKIN-1.159 IS DISTORTING EXCESSIVELY.
   ELEMENT SE_SKIN-1.159 IS DISTORTING EXCESSIVELY.
   ELEMENT SE_SKIN-1.162 IS DISTORTING EXCESSIVELY.
   ELEMENT SE_SKIN-1.162 IS DISTORTING EXCESSIVELY.
   ELEMENT SE_SKIN-1.162 IS DISTORTING EXCESSIVELY.
   ELEMENT SE_SKIN-1.162 IS DISTORTING EXCESSIVELY.
   ELEMENT SE_SKIN-1.162 IS DISTORTING EXCESSIVELY.
   ELEMENT SE_SKIN-1.162 IS DISTORTING EXCESSIVELY.
   ELEMENT SE_SKIN-1.163 IS DISTORTING EXCESSIVELY.
   ELEMENT SE_SKIN-1.163 IS DISTORTING EXCESSIVELY.
   ELEMENT SE_SKIN-1.163 IS DISTORTING EXCESSIVELY.
   ELEMENT SE_SKIN-1.164 IS DISTORTING EXCESSIVELY.
   ELEMENT SE_SKIN-1.164 IS DISTORTING EXCESSIVELY.
   ELEMENT SE_SKIN-1.165 IS DISTORTING EXCESSIVELY.
   ELEMENT SE_SKIN-1.165 IS DISTORTING EXCESSIVELY.
   ELEMENT SE_SKIN-1.165 IS DISTORTING EXCESSIVELY.
   ELEMENT SE_SKIN-1.165 IS DISTORTING EXCESSIVELY.
   ELEMENT SE_SKIN-1.165 IS DISTORTING EXCESSIVELY.
   ELEMENT SE_SKIN-1.166 IS DISTORTING EXCESSIVELY.
   ELEMENT SE_SKIN-1.166 IS DISTORTING EXCESSIVELY.
   ELEMENT SE_SKIN-1.166 IS DISTORTING EXCESSIVELY.
   ELEMENT SE_SKIN-1.166 IS DISTORTING EXCESSIVELY.
   ELEMENT SE_SKIN-1.166 IS DISTORTING EXCESSIVELY.
   ELEMENT SE_SKIN-1.166 IS DISTORTING EXCESSIVELY.
   ELEMENT SE_SKIN-1.166 IS DISTORTING EXCESSIVELY.
   ELEMENT SE_SKIN-1.167 IS DISTORTING EXCESSIVELY.
   ELEMENT SE_SKIN-1.167 IS DISTORTING EXCESSIVELY.
   ELEMENT SE_SKIN-1.167 IS DISTORTING EXCESSIVELY.
   ELEMENT SE_SKIN-1.167 IS DISTORTING EXCESSIVELY.
   ELEMENT SE_SKIN-1.167 IS DISTORTING EXCESSIVELY.
   ELEMENT SE_SKIN-1.168 IS DISTORTING EXCESSIVELY.
   ELEMENT SE_SKIN-1.168 IS DISTORTING EXCESSIVELY.
   ELEMENT SE_SKIN-1.168 IS DISTORTING EXCESSIVELY.
   ELEMENT SE_SKIN-1.169 IS DISTORTING EXCESSIVELY.
   ELEMENT SE_SKIN-1.169 IS DISTORTING EXCESSIVELY.
   ELEMENT SE_SKIN-1.169 IS DISTORTING EXCESSIVELY.
   ELEMENT SE_SKIN-1.169 IS DISTORTING EXCESSIVELY.
   ELEMENT SE_SKIN-1.169 IS DISTORTING EXCESSIVELY.
   ELEMENT SE_SKIN-1.170 IS DISTORTING EXCESSIVELY.
   ELEMENT SE_SKIN-1.170 IS DISTORTING EXCESSIVELY.
   ELEMENT SE_SKIN-1.170 IS DISTORTING EXCESSIVELY.
   ELEMENT SE_SKIN-1.170 IS DISTORTING EXCESSIVELY.
   ELEMENT SE_SKIN-1.171 IS DISTORTING EXCESSIVELY.
   ELEMENT SE_SKIN-1.171 IS DISTORTING EXCESSIVELY.
   ELEMENT SE_SKIN-1.171 IS DISTORTING EXCESSIVELY.
   ELEMENT SE_SKIN-1.171 IS DISTORTING EXCESSIVELY.
   ELEMENT SE_SKIN-1.171 IS DISTORTING EXCESSIVELY.
   ELEMENT SE_SKIN-1.171 IS DISTORTING EXCESSIVELY.
   ELEMENT SE_SKIN-1.172 IS DISTORTING EXCESSIVELY.
   ELEMENT SE_SKIN-1.172 IS DISTORTING EXCESSIVELY.
   ELEMENT SE_SKIN-1.172 IS DISTORTING EXCESSIVELY.
   ELEMENT SE_SKIN-1.172 IS DISTORTING EXCESSIVELY.
   ELEMENT SE_SKIN-1.172 IS DISTORTING EXCESSIVELY.
   ELEMENT SE_SKIN-1.172 IS DISTORTING EXCESSIVELY.
   ELEMENT SE_SKIN-1.172 IS DISTORTING EXCESSIVELY.
   ELEMENT SE_SKIN-1.172 IS DISTORTING EXCESSIVELY.
   ELEMENT SE_SKIN-1.173 IS DISTORTING EXCESSIVELY.
   ELEMENT SE_SKIN-1.174 IS DISTORTING EXCESSIVELY.
   ELEMENT SE_SKIN-1.174 IS DISTORTING EXCESSIVELY.
   ELEMENT SE_SKIN-1.174 IS DISTORTING EXCESSIVELY.
   ELEMENT SE_SKIN-1.174 IS DISTORTING EXCESSIVELY.
   ELEMENT SE_SKIN-1.174 IS DISTORTING EXCESSIVELY.
   ELEMENT SE_SKIN-1.174 IS DISTORTING EXCESSIVELY.
   ELEMENT SE_SKIN-1.175 IS DISTORTING EXCESSIVELY.
   ELEMENT SE_SKIN-1.175 IS DISTORTING EXCESSIVELY.
   ELEMENT SE_SKIN-1.175 IS DISTORTING EXCESSIVELY.
   ELEMENT SE_SKIN-1.175 IS DISTORTING EXCESSIVELY.
   ELEMENT SE_SKIN-1.176 IS DISTORTING EXCESSIVELY.
   ELEMENT SE_SKIN-1.176 IS DISTORTING EXCESSIVELY.
   ELEMENT SE_SKIN-1.176 IS DISTORTING EXCESSIVELY.
   ELEMENT SE_SKIN-1.176 IS DISTORTING EXCESSIVELY.
   ELEMENT SE_SKIN-1.176 IS DISTORTING EXCESSIVELY.
   ELEMENT SE_SKIN-1.176 IS DISTORTING EXCESSIVELY.
   ELEMENT SE_SKIN-1.176 IS DISTORTING EXCESSIVELY.
   ELEMENT SE_SKIN-1.176 IS DISTORTING EXCESSIVELY.
   ELEMENT SE_SKIN-1.177 IS DISTORTING EXCESSIVELY.
   ELEMENT SE_SKIN-1.177 IS DISTORTING EXCESSIVELY.
   ELEMENT SE_SKIN-1.177 IS DISTORTING EXCESSIVELY.
   ELEMENT SE_SKIN-1.177 IS DISTORTING EXCESSIVELY.
   ELEMENT SE_SKIN-1.177 IS DISTORTING EXCESSIVELY.
   ELEMENT SE_SKIN-1.177 IS DISTORTING EXCESSIVELY.
   ELEMENT SE_SKIN-1.177 IS DISTORTING EXCESSIVELY.
   ELEMENT SE_SKIN-1.177 IS DISTORTING EXCESSIVELY.
   ELEMENT SE_SKIN-1.178 IS DISTORTING EXCESSIVELY.
   ELEMENT SE_SKIN-1.178 IS DISTORTING EXCESSIVELY.
   ELEMENT SE_SKIN-1.178 IS DISTORTING EXCESSIVELY.
   ELEMENT SE_SKIN-1.178 IS DISTORTING EXCESSIVELY.
   ELEMENT SE_SKIN-1.179 IS DISTORTING EXCESSIVELY.
   ELEMENT SE_SKIN-1.179 IS DISTORTING EXCESSIVELY.
   ELEMENT SE_SKIN-1.179 IS DISTORTING EXCESSIVELY.
   ELEMENT SE_SKIN-1.179 IS DISTORTING EXCESSIVELY.
   ELEMENT SE_SKIN-1.179 IS DISTORTING EXCESSIVELY.
   ELEMENT SE_SKIN-1.179 IS DISTORTING EXCESSIVELY.
   ELEMENT SE_SKIN-1.180 IS DISTORTING EXCESSIVELY.
   ELEMENT SE_SKIN-1.181 IS DISTORTING EXCESSIVELY.
   ELEMENT SE_SKIN-1.181 IS DISTORTING EXCESSIVELY.
   ELEMENT SE_SKIN-1.181 IS DISTORTING EXCESSIVELY.
   ELEMENT SE_SKIN-1.181 IS DISTORTING EXCESSIVELY.
   ELEMENT SE_SKIN-1.181 IS DISTORTING EXCESSIVELY.
   ELEMENT SE_SKIN-1.181 IS DISTORTING EXCESSIVELY.
   ELEMENT SE_SKIN-1.181 IS DISTORTING EXCESSIVELY.
   ELEMENT SE_SKIN-1.181 IS DISTORTING EXCESSIVELY.
   ELEMENT SE_SKIN-1.182 IS DISTORTING EXCESSIVELY.
   ELEMENT SE_SKIN-1.182 IS DISTORTING EXCESSIVELY.
   ELEMENT SE_SKIN-1.182 IS DISTORTING EXCESSIVELY.
   ELEMENT SE_SKIN-1.182 IS DISTORTING EXCESSIVELY.
   ELEMENT SE_SKIN-1.182 IS DISTORTING EXCESSIVELY.
   ELEMENT SE_SKIN-1.182 IS DISTORTING EXCESSIVELY.
   ELEMENT SE_SKIN-1.183 IS DISTORTING EXCESSIVELY.
   ELEMENT SE_SKIN-1.183 IS DISTORTING EXCESSIVELY.
   ELEMENT SE_SKIN-1.183 IS DISTORTING EXCESSIVELY.
   ELEMENT SE_SKIN-1.183 IS DISTORTING EXCESSIVELY.
   ELEMENT SE_SKIN-1.184 IS DISTORTING EXCESSIVELY.
   ELEMENT SE_SKIN-1.184 IS DISTORTING EXCESSIVELY.
   ELEMENT SE_SKIN-1.184 IS DISTORTING EXCESSIVELY.
   ELEMENT SE_SKIN-1.184 IS DISTORTING EXCESSIVELY.
   ELEMENT SE_SKIN-1.184 IS DISTORTING EXCESSIVELY.
   ELEMENT SE_SKIN-1.185 IS DISTORTING EXCESSIVELY.
   ELEMENT SE_SKIN-1.185 IS DISTORTING EXCESSIVELY.
   ELEMENT SE_SKIN-1.185 IS DISTORTING EXCESSIVELY.
   ELEMENT SE_SKIN-1.186 IS DISTORTING EXCESSIVELY.
   ELEMENT SE_SKIN-1.186 IS DISTORTING EXCESSIVELY.
   ELEMENT SE_SKIN-1.186 IS DISTORTING EXCESSIVELY.
   ELEMENT SE_SKIN-1.186 IS DISTORTING EXCESSIVELY.
   ELEMENT SE_SKIN-1.186 IS DISTORTING EXCESSIVELY.
   ELEMENT SE_SKIN-1.187 IS DISTORTING EXCESSIVELY.
   ELEMENT SE_SKIN-1.187 IS DISTORTING EXCESSIVELY.
   ELEMENT SE_SKIN-1.187 IS DISTORTING EXCESSIVELY.
   ELEMENT SE_SKIN-1.187 IS DISTORTING EXCESSIVELY.
   ELEMENT SE_SKIN-1.187 IS DISTORTING EXCESSIVELY.
   ELEMENT SE_SKIN-1.187 IS DISTORTING EXCESSIVELY.
   ELEMENT SE_SKIN-1.187 IS DISTORTING EXCESSIVELY.
   ELEMENT SE_SKIN-1.188 IS DISTORTING EXCESSIVELY.
   ELEMENT SE_SKIN-1.188 IS DISTORTING EXCESSIVELY.
   ELEMENT SE_SKIN-1.188 IS DISTORTING EXCESSIVELY.
   ELEMENT SE_SKIN-1.188 IS DISTORTING EXCESSIVELY.
   ELEMENT SE_SKIN-1.188 IS DISTORTING EXCESSIVELY.
   ELEMENT SE_SKIN-1.189 IS DISTORTING EXCESSIVELY.
   ELEMENT SE_SKIN-1.189 IS DISTORTING EXCESSIVELY.
   ELEMENT SE_SKIN-1.190 IS DISTORTING EXCESSIVELY.
   ELEMENT SE_SKIN-1.190 IS DISTORTING EXCESSIVELY.
   ELEMENT SE_SKIN-1.190 IS DISTORTING EXCESSIVELY.
   ELEMENT SE_SKIN-1.191 IS DISTORTING EXCESSIVELY.
   ELEMENT SE_SKIN-1.191 IS DISTORTING EXCESSIVELY.
   ELEMENT SE_SKIN-1.191 IS DISTORTING EXCESSIVELY.
   ELEMENT SE_SKIN-1.191 IS DISTORTING EXCESSIVELY.
   ELEMENT SE_SKIN-1.191 IS DISTORTING EXCESSIVELY.
   ELEMENT SE_SKIN-1.191 IS DISTORTING EXCESSIVELY.
   ELEMENT SE_SKIN-1.194 IS DISTORTING EXCESSIVELY.
   ELEMENT SE_SKIN-1.194 IS DISTORTING EXCESSIVELY.
   ELEMENT SE_SKIN-1.194 IS DISTORTING EXCESSIVELY.
   ELEMENT SE_SKIN-1.194 IS DISTORTING EXCESSIVELY.
   ELEMENT SE_SKIN-1.194 IS DISTORTING EXCESSIVELY.
   ELEMENT SE_SKIN-1.194 IS DISTORTING EXCESSIVELY.
   ELEMENT SE_SKIN-1.195 IS DISTORTING EXCESSIVELY.
   ELEMENT SE_SKIN-1.195 IS DISTORTING EXCESSIVELY.
   ELEMENT SE_SKIN-1.195 IS DISTORTING EXCESSIVELY.
   ELEMENT SE_SKIN-1.195 IS DISTORTING EXCESSIVELY.
   ELEMENT SE_SKIN-1.195 IS DISTORTING EXCESSIVELY.
   ELEMENT SE_SKIN-1.195 IS DISTORTING EXCESSIVELY.
   ELEMENT SE_SKIN-1.195 IS DISTORTING EXCESSIVELY.
   ELEMENT SE_SKIN-1.196 IS DISTORTING EXCESSIVELY.
   ELEMENT SE_SKIN-1.196 IS DISTORTING EXCESSIVELY.
   ELEMENT SE_SKIN-1.196 IS DISTORTING EXCESSIVELY.
   ELEMENT SE_SKIN-1.196 IS DISTORTING EXCESSIVELY.
   ELEMENT SE_SKIN-1.196 IS DISTORTING EXCESSIVELY.
   ELEMENT SE_SKIN-1.196 IS DISTORTING EXCESSIVELY.
   ELEMENT SE_SKIN-1.197 IS DISTORTING EXCESSIVELY.
   ELEMENT SE_SKIN-1.197 IS DISTORTING EXCESSIVELY.
   ELEMENT SE_SKIN-1.197 IS DISTORTING EXCESSIVELY.
   ELEMENT SE_SKIN-1.198 IS DISTORTING EXCESSIVELY.
   ELEMENT SE_SKIN-1.198 IS DISTORTING EXCESSIVELY.
   ELEMENT SE_SKIN-1.199 IS DISTORTING EXCESSIVELY.
   ELEMENT SE_SKIN-1.199 IS DISTORTING EXCESSIVELY.
   ELEMENT SE_SKIN-1.199 IS DISTORTING EXCESSIVELY.
   ELEMENT SE_SKIN-1.199 IS DISTORTING EXCESSIVELY.
   ELEMENT SE_SKIN-1.199 IS DISTORTING EXCESSIVELY.
   ELEMENT SE_SKIN-1.199 IS DISTORTING EXCESSIVELY.
   ELEMENT SE_SKIN-1.199 IS DISTORTING EXCESSIVELY.
   ELEMENT SE_SKIN-1.200 IS DISTORTING EXCESSIVELY.
   ELEMENT SE_SKIN-1.201 IS DISTORTING EXCESSIVELY.
   ELEMENT SE_SKIN-1.201 IS DISTORTING EXCESSIVELY.
   ELEMENT SE_SKIN-1.202 IS DISTORTING EXCESSIVELY.
   ELEMENT SE_SKIN-1.202 IS DISTORTING EXCESSIVELY.
   ELEMENT SE_SKIN-1.202 IS DISTORTING EXCESSIVELY.
   ELEMENT SE_SKIN-1.202 IS DISTORTING EXCESSIVELY.
   ELEMENT SE_SKIN-1.202 IS DISTORTING EXCESSIVELY.
   ELEMENT SE_SKIN-1.203 IS DISTORTING EXCESSIVELY.
   ELEMENT SE_SKIN-1.203 IS DISTORTING EXCESSIVELY.
   ELEMENT SE_SKIN-1.203 IS DISTORTING EXCESSIVELY.
   ELEMENT SE_SKIN-1.203 IS DISTORTING EXCESSIVELY.
   ELEMENT SE_SKIN-1.204 IS DISTORTING EXCESSIVELY.
   ELEMENT SE_SKIN-1.204 IS DISTORTING EXCESSIVELY.
   ELEMENT SE_SKIN-1.205 IS DISTORTING EXCESSIVELY.
   ELEMENT SE_SKIN-1.205 IS DISTORTING EXCESSIVELY.
   ELEMENT SE_SKIN-1.205 IS DISTORTING EXCESSIVELY.
   ELEMENT SE_SKIN-1.206 IS DISTORTING EXCESSIVELY.
   ELEMENT SE_SKIN-1.206 IS DISTORTING EXCESSIVELY.
   ELEMENT SE_SKIN-1.206 IS DISTORTING EXCESSIVELY.
   ELEMENT SE_SKIN-1.206 IS DISTORTING EXCESSIVELY.
   ELEMENT SE_SKIN-1.207 IS DISTORTING EXCESSIVELY.
   ELEMENT SE_SKIN-1.207 IS DISTORTING EXCESSIVELY.
   ELEMENT SE_SKIN-1.208 IS DISTORTING EXCESSIVELY.
   ELEMENT SE_SKIN-1.208 IS DISTORTING EXCESSIVELY.
   ELEMENT SE_SKIN-1.208 IS DISTORTING EXCESSIVELY.
   ELEMENT SE_SKIN-1.208 IS DISTORTING EXCESSIVELY.
   ELEMENT SE_SKIN-1.208 IS DISTORTING EXCESSIVELY.
   ELEMENT SE_SKIN-1.209 IS DISTORTING EXCESSIVELY.
   ELEMENT SE_SKIN-1.209 IS DISTORTING EXCESSIVELY.
   ELEMENT SE_SKIN-1.209 IS DISTORTING EXCESSIVELY.
   ELEMENT SE_SKIN-1.209 IS DISTORTING EXCESSIVELY.
   ELEMENT SE_SKIN-1.209 IS DISTORTING EXCESSIVELY.
   ELEMENT SE_SKIN-1.210 IS DISTORTING EXCESSIVELY.
   ELEMENT SE_SKIN-1.210 IS DISTORTING EXCESSIVELY.
   ELEMENT SE_SKIN-1.211 IS DISTORTING EXCESSIVELY.
   ELEMENT SE_SKIN-1.211 IS DISTORTING EXCESSIVELY.
   ELEMENT SE_SKIN-1.211 IS DISTORTING EXCESSIVELY.
   ELEMENT SE_SKIN-1.211 IS DISTORTING EXCESSIVELY.
   ELEMENT SE_SKIN-1.212 IS DISTORTING EXCESSIVELY.
   ELEMENT SE_SKIN-1.212 IS DISTORTING EXCESSIVELY.
   ELEMENT SE_SKIN-1.212 IS DISTORTING EXCESSIVELY.
   ELEMENT SE_SKIN-1.213 IS DISTORTING EXCESSIVELY.
   ELEMENT SE_SKIN-1.213 IS DISTORTING EXCESSIVELY.
   ELEMENT SE_SKIN-1.214 IS DISTORTING EXCESSIVELY.
   ELEMENT SE_SKIN-1.214 IS DISTORTING EXCESSIVELY.
   ELEMENT SE_SKIN-1.214 IS DISTORTING EXCESSIVELY.
   ELEMENT SE_SKIN-1.214 IS DISTORTING EXCESSIVELY.
   ELEMENT SE_SKIN-1.215 IS DISTORTING EXCESSIVELY.
   ELEMENT SE_SKIN-1.215 IS DISTORTING EXCESSIVELY.
   ELEMENT SE_SKIN-1.215 IS DISTORTING EXCESSIVELY.
   ELEMENT SE_SKIN-1.215 IS DISTORTING EXCESSIVELY.
   ELEMENT SE_SKIN-1.215 IS DISTORTING EXCESSIVELY.
   ELEMENT SE_SKIN-1.216 IS DISTORTING EXCESSIVELY.
   ELEMENT SE_SKIN-1.216 IS DISTORTING EXCESSIVELY.
   ELEMENT SE_SKIN-1.217 IS DISTORTING EXCESSIVELY.
   ELEMENT SE_SKIN-1.218 IS DISTORTING EXCESSIVELY.
   ELEMENT SE_SKIN-1.218 IS DISTORTING EXCESSIVELY.
   ELEMENT SE_SKIN-1.218 IS DISTORTING EXCESSIVELY.
   ELEMENT SE_SKIN-1.218 IS DISTORTING EXCESSIVELY.
   ELEMENT SE_SKIN-1.218 IS DISTORTING EXCESSIVELY.
   ELEMENT SE_SKIN-1.218 IS DISTORTING EXCESSIVELY.
   ELEMENT SE_SKIN-1.218 IS DISTORTING EXCESSIVELY.
   ELEMENT SE_SKIN-1.219 IS DISTORTING EXCESSIVELY.
   ELEMENT SE_SKIN-1.219 IS DISTORTING EXCESSIVELY.
   ELEMENT SE_SKIN-1.220 IS DISTORTING EXCESSIVELY.
   ELEMENT SE_SKIN-1.220 IS DISTORTING EXCESSIVELY.
   ELEMENT SE_SKIN-1.220 IS DISTORTING EXCESSIVELY.
   ELEMENT SE_SKIN-1.221 IS DISTORTING EXCESSIVELY.
   ELEMENT SE_SKIN-1.221 IS DISTORTING EXCESSIVELY.
   ELEMENT SE_SKIN-1.221 IS DISTORTING EXCESSIVELY.
   ELEMENT SE_SKIN-1.221 IS DISTORTING EXCESSIVELY.
   ELEMENT SE_SKIN-1.221 IS DISTORTING EXCESSIVELY.
   ELEMENT SE_SKIN-1.221 IS DISTORTING EXCESSIVELY.
   ELEMENT SE_SKIN-1.222 IS DISTORTING EXCESSIVELY.
   ELEMENT SE_SKIN-1.222 IS DISTORTING EXCESSIVELY.
   ELEMENT SE_SKIN-1.222 IS DISTORTING EXCESSIVELY.
   ELEMENT SE_SKIN-1.222 IS DISTORTING EXCESSIVELY.
   ELEMENT SE_SKIN-1.222 IS DISTORTING EXCESSIVELY.
   ELEMENT SE_SKIN-1.222 IS DISTORTING EXCESSIVELY.
   ELEMENT SE_SKIN-1.222 IS DISTORTING EXCESSIVELY.
   ELEMENT SE_SKIN-1.223 IS DISTORTING EXCESSIVELY.
   ELEMENT SE_SKIN-1.223 IS DISTORTING EXCESSIVELY.
   ELEMENT SE_SKIN-1.223 IS DISTORTING EXCESSIVELY.
   ELEMENT SE_SKIN-1.223 IS DISTORTING EXCESSIVELY.
   ELEMENT SE_SKIN-1.223 IS DISTORTING EXCESSIVELY.
   ELEMENT SE_SKIN-1.223 IS DISTORTING EXCESSIVELY.
   ELEMENT SE_SKIN-1.225 IS DISTORTING EXCESSIVELY.
   ELEMENT SE_SKIN-1.225 IS DISTORTING EXCESSIVELY.
   ELEMENT SE_SKIN-1.225 IS DISTORTING EXCESSIVELY.
   ELEMENT SE_SKIN-1.226 IS DISTORTING EXCESSIVELY.
   ELEMENT SE_SKIN-1.226 IS DISTORTING EXCESSIVELY.
   ELEMENT SE_SKIN-1.226 IS DISTORTING EXCESSIVELY.
   ELEMENT SE_SKIN-1.226 IS DISTORTING EXCESSIVELY.
   ELEMENT SE_SKIN-1.226 IS DISTORTING EXCESSIVELY.
   ELEMENT SE_SKIN-1.227 IS DISTORTING EXCESSIVELY.
   ELEMENT SE_SKIN-1.227 IS DISTORTING EXCESSIVELY.
   ELEMENT SE_SKIN-1.227 IS DISTORTING EXCESSIVELY.
   ELEMENT SE_SKIN-1.227 IS DISTORTING EXCESSIVELY.
   ELEMENT SE_SKIN-1.227 IS DISTORTING EXCESSIVELY.
   ELEMENT SE_SKIN-1.227 IS DISTORTING EXCESSIVELY.
   ELEMENT SE_SKIN-1.227 IS DISTORTING EXCESSIVELY.
   ELEMENT SE_SKIN-1.228 IS DISTORTING EXCESSIVELY.
   ELEMENT SE_SKIN-1.228 IS DISTORTING EXCESSIVELY.
   ELEMENT SE_SKIN-1.228 IS DISTORTING EXCESSIVELY.
   ELEMENT SE_SKIN-1.228 IS DISTORTING EXCESSIVELY.
   ELEMENT SE_SKIN-1.229 IS DISTORTING EXCESSIVELY.
   ELEMENT SE_SKIN-1.229 IS DISTORTING EXCESSIVELY.
   ELEMENT SE_SKIN-1.229 IS DISTORTING EXCESSIVELY.
   ELEMENT SE_SKIN-1.229 IS DISTORTING EXCESSIVELY.
   ELEMENT SE_SKIN-1.229 IS DISTORTING EXCESSIVELY.
   ELEMENT SE_SKIN-1.229 IS DISTORTING EXCESSIVELY.
   ELEMENT SE_SKIN-1.229 IS DISTORTING EXCESSIVELY.
   ELEMENT SE_SKIN-1.229 IS DISTORTING EXCESSIVELY.
   ELEMENT SE_SKIN-1.230 IS DISTORTING EXCESSIVELY.
   ELEMENT SE_SKIN-1.230 IS DISTORTING EXCESSIVELY.
   ELEMENT SE_SKIN-1.230 IS DISTORTING EXCESSIVELY.
   ELEMENT SE_SKIN-1.230 IS DISTORTING EXCESSIVELY.
   ELEMENT SE_SKIN-1.231 IS DISTORTING EXCESSIVELY.
   ELEMENT SE_SKIN-1.231 IS DISTORTING EXCESSIVELY.
   ELEMENT SE_SKIN-1.231 IS DISTORTING EXCESSIVELY.
   ELEMENT SE_SKIN-1.231 IS DISTORTING EXCESSIVELY.
   ELEMENT SE_SKIN-1.231 IS DISTORTING EXCESSIVELY.
   ELEMENT SE_SKIN-1.231 IS DISTORTING EXCESSIVELY.
   ELEMENT SE_SKIN-1.232 IS DISTORTING EXCESSIVELY.
   ELEMENT SE_SKIN-1.232 IS DISTORTING EXCESSIVELY.
   ELEMENT SE_SKIN-1.232 IS DISTORTING EXCESSIVELY.
   ELEMENT SE_SKIN-1.232 IS DISTORTING EXCESSIVELY.
   ELEMENT SE_SKIN-1.232 IS DISTORTING EXCESSIVELY.
   ELEMENT SE_SKIN-1.232 IS DISTORTING EXCESSIVELY.
   ELEMENT SE_SKIN-1.233 IS DISTORTING EXCESSIVELY.
   ELEMENT SE_SKIN-1.233 IS DISTORTING EXCESSIVELY.
   ELEMENT SE_SKIN-1.233 IS DISTORTING EXCESSIVELY.
   ELEMENT SE_SKIN-1.233 IS DISTORTING EXCESSIVELY.
   ELEMENT SE_SKIN-1.233 IS DISTORTING EXCESSIVELY.
   ELEMENT SE_SKIN-1.234 IS DISTORTING EXCESSIVELY.
   ELEMENT SE_SKIN-1.235 IS DISTORTING EXCESSIVELY.
   ELEMENT SE_SKIN-1.235 IS DISTORTING EXCESSIVELY.
   ELEMENT SE_SKIN-1.235 IS DISTORTING EXCESSIVELY.
   ELEMENT SE_SKIN-1.235 IS DISTORTING EXCESSIVELY.
   ELEMENT SE_SKIN-1.235 IS DISTORTING EXCESSIVELY.
   ELEMENT SE_SKIN-1.235 IS DISTORTING EXCESSIVELY.
   ELEMENT SE_SKIN-1.236 IS DISTORTING EXCESSIVELY.
   ELEMENT SE_SKIN-1.236 IS DISTORTING EXCESSIVELY.
   ELEMENT SE_SKIN-1.236 IS DISTORTING EXCESSIVELY.
   ELEMENT SE_SKIN-1.236 IS DISTORTING EXCESSIVELY.
   ELEMENT SE_SKIN-1.236 IS DISTORTING EXCESSIVELY.
   ELEMENT SE_SKIN-1.236 IS DISTORTING EXCESSIVELY.
   ELEMENT SE_SKIN-1.237 IS DISTORTING EXCESSIVELY.
   ELEMENT SE_SKIN-1.237 IS DISTORTING EXCESSIVELY.
   ELEMENT SE_SKIN-1.237 IS DISTORTING EXCESSIVELY.
   ELEMENT SE_SKIN-1.237 IS DISTORTING EXCESSIVELY.
   ELEMENT SE_SKIN-1.237 IS DISTORTING EXCESSIVELY.
   ELEMENT SE_SKIN-1.237 IS DISTORTING EXCESSIVELY.
   ELEMENT SE_SKIN-1.238 IS DISTORTING EXCESSIVELY.
   ELEMENT SE_SKIN-1.238 IS DISTORTING EXCESSIVELY.
   ELEMENT SE_SKIN-1.238 IS DISTORTING EXCESSIVELY.
   ELEMENT SE_SKIN-1.238 IS DISTORTING EXCESSIVELY.
   ELEMENT SE_SKIN-1.238 IS DISTORTING EXCESSIVELY.
   ELEMENT SE_SKIN-1.238 IS DISTORTING EXCESSIVELY.
   ELEMENT SE_SKIN-1.239 IS DISTORTING EXCESSIVELY.
   ELEMENT SE_SKIN-1.239 IS DISTORTING EXCESSIVELY.
   ELEMENT SE_SKIN-1.239 IS DISTORTING EXCESSIVELY.
   ELEMENT SE_SKIN-1.240 IS DISTORTING EXCESSIVELY.
   ELEMENT SE_SKIN-1.240 IS DISTORTING EXCESSIVELY.
   ELEMENT SE_SKIN-1.240 IS DISTORTING EXCESSIVELY.
   ELEMENT SE_SKIN-1.240 IS DISTORTING EXCESSIVELY.
   ELEMENT SE_SKIN-1.240 IS DISTORTING EXCESSIVELY.
   ELEMENT SE_SKIN-1.240 IS DISTORTING EXCESSIVELY.
   ELEMENT SE_SKIN-1.241 IS DISTORTING EXCESSIVELY.
   ELEMENT SE_SKIN-1.241 IS DISTORTING EXCESSIVELY.
   ELEMENT SE_SKIN-1.241 IS DISTORTING EXCESSIVELY.
   ELEMENT SE_SKIN-1.241 IS DISTORTING EXCESSIVELY.
   ELEMENT SE_SKIN-1.241 IS DISTORTING EXCESSIVELY.
   ELEMENT SE_SKIN-1.241 IS DISTORTING EXCESSIVELY.
   ELEMENT SE_SKIN-1.242 IS DISTORTING EXCESSIVELY.
   ELEMENT SE_SKIN-1.242 IS DISTORTING EXCESSIVELY.
   ELEMENT SE_SKIN-1.242 IS DISTORTING EXCESSIVELY.
   ELEMENT SE_SKIN-1.243 IS DISTORTING EXCESSIVELY.
   ELEMENT SE_SKIN-1.243 IS DISTORTING EXCESSIVELY.
   ELEMENT SE_SKIN-1.243 IS DISTORTING EXCESSIVELY.
   ELEMENT SE_SKIN-1.243 IS DISTORTING EXCESSIVELY.
   ELEMENT SE_SKIN-1.243 IS DISTORTING EXCESSIVELY.
   ELEMENT SE_SKIN-1.243 IS DISTORTING EXCESSIVELY.
   ELEMENT SE_SKIN-1.244 IS DISTORTING EXCESSIVELY.
   ELEMENT SE_SKIN-1.244 IS DISTORTING EXCESSIVELY.
   ELEMENT SE_SKIN-1.244 IS DISTORTING EXCESSIVELY.
   ELEMENT SE_SKIN-1.244 IS DISTORTING EXCESSIVELY.
   ELEMENT SE_SKIN-1.244 IS DISTORTING EXCESSIVELY.
   ELEMENT SE_SKIN-1.244 IS DISTORTING EXCESSIVELY.
   ELEMENT SE_SKIN-1.245 IS DISTORTING EXCESSIVELY.
   ELEMENT SE_SKIN-1.245 IS DISTORTING EXCESSIVELY.
   ELEMENT SE_SKIN-1.245 IS DISTORTING EXCESSIVELY.
   ELEMENT SE_SKIN-1.245 IS DISTORTING EXCESSIVELY.
   ELEMENT SE_SKIN-1.245 IS DISTORTING EXCESSIVELY.
   ELEMENT SE_SKIN-1.245 IS DISTORTING EXCESSIVELY.
   ELEMENT SE_SKIN-1.246 IS DISTORTING EXCESSIVELY.
   ELEMENT SE_SKIN-1.246 IS DISTORTING EXCESSIVELY.
   ELEMENT SE_SKIN-1.246 IS DISTORTING EXCESSIVELY.
   ELEMENT SE_SKIN-1.246 IS DISTORTING EXCESSIVELY.
   ELEMENT SE_SKIN-1.246 IS DISTORTING EXCESSIVELY.
   ELEMENT SE_SKIN-1.246 IS DISTORTING EXCESSIVELY.
   ELEMENT SE_SKIN-1.247 IS DISTORTING EXCESSIVELY.
   ELEMENT SE_SKIN-1.248 IS DISTORTING EXCESSIVELY.
   ELEMENT SE_SKIN-1.248 IS DISTORTING EXCESSIVELY.
   ELEMENT SE_SKIN-1.248 IS DISTORTING EXCESSIVELY.
   ELEMENT SE_SKIN-1.248 IS DISTORTING EXCESSIVELY.
   ELEMENT SE_SKIN-1.248 IS DISTORTING EXCESSIVELY.
   ELEMENT SE_SKIN-1.249 IS DISTORTING EXCESSIVELY.
   ELEMENT SE_SKIN-1.249 IS DISTORTING EXCESSIVELY.
   ELEMENT SE_SKIN-1.249 IS DISTORTING EXCESSIVELY.
   ELEMENT SE_SKIN-1.249 IS DISTORTING EXCESSIVELY.
   ELEMENT SE_SKIN-1.249 IS DISTORTING EXCESSIVELY.
   ELEMENT SE_SKIN-1.249 IS DISTORTING EXCESSIVELY.
   ELEMENT SE_SKIN-1.250 IS DISTORTING EXCESSIVELY.
   ELEMENT SE_SKIN-1.250 IS DISTORTING EXCESSIVELY.
   ELEMENT SE_SKIN-1.250 IS DISTORTING EXCESSIVELY.
   ELEMENT SE_SKIN-1.250 IS DISTORTING EXCESSIVELY.
   ELEMENT SE_SKIN-1.250 IS DISTORTING EXCESSIVELY.
   ELEMENT SE_SKIN-1.250 IS DISTORTING EXCESSIVELY.
   ELEMENT SE_SKIN-1.251 IS DISTORTING EXCESSIVELY.
   ELEMENT SE_SKIN-1.251 IS DISTORTING EXCESSIVELY.
   ELEMENT SE_SKIN-1.251 IS DISTORTING EXCESSIVELY.
   ELEMENT SE_SKIN-1.251 IS DISTORTING EXCESSIVELY.
   ELEMENT SE_SKIN-1.252 IS DISTORTING EXCESSIVELY.
   ELEMENT SE_SKIN-1.252 IS DISTORTING EXCESSIVELY.
   ELEMENT SE_SKIN-1.252 IS DISTORTING EXCESSIVELY.
   ELEMENT SE_SKIN-1.252 IS DISTORTING EXCESSIVELY.
   ELEMENT SE_SKIN-1.252 IS DISTORTING EXCESSIVELY.
   ELEMENT SE_SKIN-1.252 IS DISTORTING EXCESSIVELY.
   ELEMENT SE_SKIN-1.252 IS DISTORTING EXCESSIVELY.
   ELEMENT SE_SKIN-1.252 IS DISTORTING EXCESSIVELY.
   ELEMENT SE_SKIN-1.253 IS DISTORTING EXCESSIVELY.
   ELEMENT SE_SKIN-1.253 IS DISTORTING EXCESSIVELY.
   ELEMENT SE_SKIN-1.253 IS DISTORTING EXCESSIVELY.
   ELEMENT SE_SKIN-1.253 IS DISTORTING EXCESSIVELY.
   ELEMENT SE_SKIN-1.254 IS DISTORTING EXCESSIVELY.
   ELEMENT SE_SKIN-1.254 IS DISTORTING EXCESSIVELY.
   ELEMENT SE_SKIN-1.254 IS DISTORTING EXCESSIVELY.
   ELEMENT SE_SKIN-1.254 IS DISTORTING EXCESSIVELY.
   ELEMENT SE_SKIN-1.254 IS DISTORTING EXCESSIVELY.
   ELEMENT SE_SKIN-1.254 IS DISTORTING EXCESSIVELY.
   ELEMENT SE_SKIN-1.254 IS DISTORTING EXCESSIVELY.
   ELEMENT SE_SKIN-1.255 IS DISTORTING EXCESSIVELY.
   ELEMENT SE_SKIN-1.255 IS DISTORTING EXCESSIVELY.
   ELEMENT SE_SKIN-1.255 IS DISTORTING EXCESSIVELY.
   ELEMENT SE_SKIN-1.255 IS DISTORTING EXCESSIVELY.
   ELEMENT SE_SKIN-1.255 IS DISTORTING EXCESSIVELY.
   ELEMENT SE_SKIN-1.256 IS DISTORTING EXCESSIVELY.
   ELEMENT SE_SKIN-1.256 IS DISTORTING EXCESSIVELY.
   ELEMENT SE_SKIN-1.256 IS DISTORTING EXCESSIVELY.
   ELEMENT SE_SKIN-1.257 IS DISTORTING EXCESSIVELY.
   ELEMENT SE_SKIN-1.257 IS DISTORTING EXCESSIVELY.
   ELEMENT SE_SKIN-1.257 IS DISTORTING EXCESSIVELY.
   ELEMENT SE_SKIN-1.257 IS DISTORTING EXCESSIVELY.
   ELEMENT SE_SKIN-1.257 IS DISTORTING EXCESSIVELY.
   ELEMENT SE_SKIN-1.257 IS DISTORTING EXCESSIVELY.
   ELEMENT SE_SKIN-1.258 IS DISTORTING EXCESSIVELY.
   ELEMENT SE_SKIN-1.258 IS DISTORTING EXCESSIVELY.
   ELEMENT SE_SKIN-1.258 IS DISTORTING EXCESSIVELY.
   ELEMENT SE_SKIN-1.258 IS DISTORTING EXCESSIVELY.
   ELEMENT SE_SKIN-1.258 IS DISTORTING EXCESSIVELY.
   ELEMENT SE_SKIN-1.259 IS DISTORTING EXCESSIVELY.
   ELEMENT SE_SKIN-1.259 IS DISTORTING EXCESSIVELY.
   ELEMENT SE_SKIN-1.259 IS DISTORTING EXCESSIVELY.
   ELEMENT SE_SKIN-1.259 IS DISTORTING EXCESSIVELY.
   ELEMENT SE_SKIN-1.259 IS DISTORTING EXCESSIVELY.
   ELEMENT SE_SKIN-1.259 IS DISTORTING EXCESSIVELY.
   ELEMENT SE_SKIN-1.259 IS DISTORTING EXCESSIVELY.
   ELEMENT SE_SKIN-1.260 IS DISTORTING EXCESSIVELY.
   ELEMENT SE_SKIN-1.260 IS DISTORTING EXCESSIVELY.
   ELEMENT SE_SKIN-1.260 IS DISTORTING EXCESSIVELY.
   ELEMENT SE_SKIN-1.260 IS DISTORTING EXCESSIVELY.
   ELEMENT SE_SKIN-1.261 IS DISTORTING EXCESSIVELY.
   ELEMENT SE_SKIN-1.261 IS DISTORTING EXCESSIVELY.
   ELEMENT SE_SKIN-1.261 IS DISTORTING EXCESSIVELY.
   ELEMENT SE_SKIN-1.262 IS DISTORTING EXCESSIVELY.
   ELEMENT SE_SKIN-1.262 IS DISTORTING EXCESSIVELY.
   ELEMENT SE_SKIN-1.263 IS DISTORTING EXCESSIVELY.
   ELEMENT SE_SKIN-1.263 IS DISTORTING EXCESSIVELY.
   ELEMENT SE_SKIN-1.263 IS DISTORTING EXCESSIVELY.
   ELEMENT SE_SKIN-1.264 IS DISTORTING EXCESSIVELY.
   ELEMENT SE_SKIN-1.264 IS DISTORTING EXCESSIVELY.
   ELEMENT SE_SKIN-1.264 IS DISTORTING EXCESSIVELY.
   ELEMENT SE_SKIN-1.265 IS DISTORTING EXCESSIVELY.
   ELEMENT SE_SKIN-1.265 IS DISTORTING EXCESSIVELY.
   ELEMENT SE_SKIN-1.265 IS DISTORTING EXCESSIVELY.
   ELEMENT SE_SKIN-1.265 IS DISTORTING EXCESSIVELY.
   ELEMENT SE_SKIN-1.265 IS DISTORTING EXCESSIVELY.
   ELEMENT SE_SKIN-1.265 IS DISTORTING EXCESSIVELY.
   ELEMENT SE_SKIN-1.266 IS DISTORTING EXCESSIVELY.
   ELEMENT SE_SKIN-1.266 IS DISTORTING EXCESSIVELY.
   ELEMENT SE_SKIN-1.266 IS DISTORTING EXCESSIVELY.
   ELEMENT SE_SKIN-1.266 IS DISTORTING EXCESSIVELY.
   ELEMENT SE_SKIN-1.267 IS DISTORTING EXCESSIVELY.
   ELEMENT SE_SKIN-1.267 IS DISTORTING EXCESSIVELY.
   ELEMENT SE_SKIN-1.267 IS DISTORTING EXCESSIVELY.
   ELEMENT SE_SKIN-1.268 IS DISTORTING EXCESSIVELY.
   ELEMENT SE_SKIN-1.268 IS DISTORTING EXCESSIVELY.
   ELEMENT SE_SKIN-1.268 IS DISTORTING EXCESSIVELY.
   ELEMENT SE_SKIN-1.268 IS DISTORTING EXCESSIVELY.
   ELEMENT SE_SKIN-1.268 IS DISTORTING EXCESSIVELY.
   ELEMENT SE_SKIN-1.269 IS DISTORTING EXCESSIVELY.
   ELEMENT SE_SKIN-1.269 IS DISTORTING EXCESSIVELY.
   ELEMENT SE_SKIN-1.269 IS DISTORTING EXCESSIVELY.
   ELEMENT SE_SKIN-1.269 IS DISTORTING EXCESSIVELY.
   ELEMENT SE_SKIN-1.269 IS DISTORTING EXCESSIVELY.
   ELEMENT SE_SKIN-1.269 IS DISTORTING EXCESSIVELY.
   ELEMENT SE_SKIN-1.270 IS DISTORTING EXCESSIVELY.
   ELEMENT SE_SKIN-1.270 IS DISTORTING EXCESSIVELY.
   ELEMENT SE_SKIN-1.270 IS DISTORTING EXCESSIVELY.
   ELEMENT SE_SKIN-1.271 IS DISTORTING EXCESSIVELY.
   ELEMENT SE_SKIN-1.271 IS DISTORTING EXCESSIVELY.
   ELEMENT SE_SKIN-1.271 IS DISTORTING EXCESSIVELY.
   ELEMENT SE_SKIN-1.271 IS DISTORTING EXCESSIVELY.
   ELEMENT SE_SKIN-1.271 IS DISTORTING EXCESSIVELY.
   ELEMENT SE_SKIN-1.271 IS DISTORTING EXCESSIVELY.
   ELEMENT SE_SKIN-1.272 IS DISTORTING EXCESSIVELY.
   ELEMENT SE_SKIN-1.273 IS DISTORTING EXCESSIVELY.
   ELEMENT SE_SKIN-1.274 IS DISTORTING EXCESSIVELY.
   ELEMENT SE_SKIN-1.274 IS DISTORTING EXCESSIVELY.
   ELEMENT SE_SKIN-1.274 IS DISTORTING EXCESSIVELY.
   ELEMENT SE_SKIN-1.274 IS DISTORTING EXCESSIVELY.
   ELEMENT SE_SKIN-1.274 IS DISTORTING EXCESSIVELY.
   ELEMENT SE_SKIN-1.274 IS DISTORTING EXCESSIVELY.
   ELEMENT SE_SKIN-1.275 IS DISTORTING EXCESSIVELY.
   ELEMENT SE_SKIN-1.275 IS DISTORTING EXCESSIVELY.
   ELEMENT SE_SKIN-1.275 IS DISTORTING EXCESSIVELY.
   ELEMENT SE_SKIN-1.276 IS DISTORTING EXCESSIVELY.
   ELEMENT SE_SKIN-1.276 IS DISTORTING EXCESSIVELY.
   ELEMENT SE_SKIN-1.276 IS DISTORTING EXCESSIVELY.
   ELEMENT SE_SKIN-1.276 IS DISTORTING EXCESSIVELY.
   ELEMENT SE_SKIN-1.276 IS DISTORTING EXCESSIVELY.
   ELEMENT SE_SKIN-1.276 IS DISTORTING EXCESSIVELY.
   ELEMENT SE_SKIN-1.277 IS DISTORTING EXCESSIVELY.
   ELEMENT SE_SKIN-1.277 IS DISTORTING EXCESSIVELY.
   ELEMENT SE_SKIN-1.277 IS DISTORTING EXCESSIVELY.
   ELEMENT SE_SKIN-1.277 IS DISTORTING EXCESSIVELY.
   ELEMENT SE_SKIN-1.277 IS DISTORTING EXCESSIVELY.
   ELEMENT SE_SKIN-1.278 IS DISTORTING EXCESSIVELY.
   ELEMENT SE_SKIN-1.278 IS DISTORTING EXCESSIVELY.
   ELEMENT SE_SKIN-1.278 IS DISTORTING EXCESSIVELY.
   ELEMENT SE_SKIN-1.279 IS DISTORTING EXCESSIVELY.
   ELEMENT SE_SKIN-1.279 IS DISTORTING EXCESSIVELY.
   ELEMENT SE_SKIN-1.279 IS DISTORTING EXCESSIVELY.
   ELEMENT SE_SKIN-1.279 IS DISTORTING EXCESSIVELY.
   ELEMENT SE_SKIN-1.280 IS DISTORTING EXCESSIVELY.
   ELEMENT SE_SKIN-1.280 IS DISTORTING EXCESSIVELY.
   ELEMENT SE_SKIN-1.280 IS DISTORTING EXCESSIVELY.
   ELEMENT SE_SKIN-1.280 IS DISTORTING EXCESSIVELY.
   ELEMENT SE_SKIN-1.280 IS DISTORTING EXCESSIVELY.
   ELEMENT SE_SKIN-1.280 IS DISTORTING EXCESSIVELY.
   ELEMENT SE_SKIN-1.281 IS DISTORTING EXCESSIVELY.
   ELEMENT SE_SKIN-1.281 IS DISTORTING EXCESSIVELY.
   ELEMENT SE_SKIN-1.281 IS DISTORTING EXCESSIVELY.
   ELEMENT SE_SKIN-1.282 IS DISTORTING EXCESSIVELY.
   ELEMENT SE_SKIN-1.282 IS DISTORTING EXCESSIVELY.
   ELEMENT SE_SKIN-1.282 IS DISTORTING EXCESSIVELY.
   ELEMENT SE_SKIN-1.283 IS DISTORTING EXCESSIVELY.
   ELEMENT SE_SKIN-1.283 IS DISTORTING EXCESSIVELY.
   ELEMENT SE_SKIN-1.284 IS DISTORTING EXCESSIVELY.
   ELEMENT SE_SKIN-1.284 IS DISTORTING EXCESSIVELY.
   ELEMENT SE_SKIN-1.284 IS DISTORTING EXCESSIVELY.
   ELEMENT SE_SKIN-1.285 IS DISTORTING EXCESSIVELY.
   ELEMENT SE_SKIN-1.285 IS DISTORTING EXCESSIVELY.
   ELEMENT SE_SKIN-1.285 IS DISTORTING EXCESSIVELY.
   ELEMENT SE_SKIN-1.285 IS DISTORTING EXCESSIVELY.
   ELEMENT SE_SKIN-1.286 IS DISTORTING EXCESSIVELY.
   ELEMENT SE_SKIN-1.286 IS DISTORTING EXCESSIVELY.
   ELEMENT SE_SKIN-1.286 IS DISTORTING EXCESSIVELY.
   ELEMENT SE_SKIN-1.286 IS DISTORTING EXCESSIVELY.
   ELEMENT SE_SKIN-1.286 IS DISTORTING EXCESSIVELY.
   ELEMENT SE_SKIN-1.286 IS DISTORTING EXCESSIVELY.
   ELEMENT SE_SKIN-1.286 IS DISTORTING EXCESSIVELY.
   ELEMENT SE_SKIN-1.287 IS DISTORTING EXCESSIVELY.
   ELEMENT SE_SKIN-1.287 IS DISTORTING EXCESSIVELY.
   ELEMENT SE_SKIN-1.287 IS DISTORTING EXCESSIVELY.
   ELEMENT SE_SKIN-1.287 IS DISTORTING EXCESSIVELY.
   ELEMENT SE_SKIN-1.287 IS DISTORTING EXCESSIVELY.
   ELEMENT SE_SKIN-1.288 IS DISTORTING EXCESSIVELY.
   ELEMENT SE_SKIN-1.288 IS DISTORTING EXCESSIVELY.
   ELEMENT SE_SKIN-1.288 IS DISTORTING EXCESSIVELY.
   ELEMENT SE_SKIN-1.288 IS DISTORTING EXCESSIVELY.
   ELEMENT SE_SKIN-1.288 IS DISTORTING EXCESSIVELY.
   ELEMENT SE_SKIN-1.288 IS DISTORTING EXCESSIVELY.
   ELEMENT SE_SKIN-1.289 IS DISTORTING EXCESSIVELY.
   ELEMENT SE_SKIN-1.290 IS DISTORTING EXCESSIVELY.
   ELEMENT SE_SKIN-1.290 IS DISTORTING EXCESSIVELY.
   ELEMENT SE_SKIN-1.290 IS DISTORTING EXCESSIVELY.
   ELEMENT SE_SKIN-1.290 IS DISTORTING EXCESSIVELY.
   ELEMENT SE_SKIN-1.290 IS DISTORTING EXCESSIVELY.
   ELEMENT SE_SKIN-1.291 IS DISTORTING EXCESSIVELY.
   ELEMENT SE_SKIN-1.291 IS DISTORTING EXCESSIVELY.
   ELEMENT SE_SKIN-1.291 IS DISTORTING EXCESSIVELY.
   ELEMENT SE_SKIN-1.292 IS DISTORTING EXCESSIVELY.
   ELEMENT SE_SKIN-1.292 IS DISTORTING EXCESSIVELY.
   ELEMENT SE_SKIN-1.292 IS DISTORTING EXCESSIVELY.
   ELEMENT SE_SKIN-1.292 IS DISTORTING EXCESSIVELY.
   ELEMENT SE_SKIN-1.293 IS DISTORTING EXCESSIVELY.
   ELEMENT SE_SKIN-1.293 IS DISTORTING EXCESSIVELY.
   ELEMENT SE_SKIN-1.293 IS DISTORTING EXCESSIVELY.
   ELEMENT SE_SKIN-1.293 IS DISTORTING EXCESSIVELY.
   ELEMENT SE_SKIN-1.293 IS DISTORTING EXCESSIVELY.
   ELEMENT SE_SKIN-1.293 IS DISTORTING EXCESSIVELY.
   ELEMENT SE_SKIN-1.293 IS DISTORTING EXCESSIVELY.
   ELEMENT SE_SKIN-1.293 IS DISTORTING EXCESSIVELY.
   ELEMENT SE_SKIN-1.294 IS DISTORTING EXCESSIVELY.
   ELEMENT SE_SKIN-1.294 IS DISTORTING EXCESSIVELY.
   ELEMENT SE_SKIN-1.294 IS DISTORTING EXCESSIVELY.
   ELEMENT SE_SKIN-1.294 IS DISTORTING EXCESSIVELY.
   ELEMENT SE_SKIN-1.295 IS DISTORTING EXCESSIVELY.
   ELEMENT SE_SKIN-1.295 IS DISTORTING EXCESSIVELY.
   ELEMENT SE_SKIN-1.295 IS DISTORTING EXCESSIVELY.
   ELEMENT SE_SKIN-1.295 IS DISTORTING EXCESSIVELY.
   ELEMENT SE_SKIN-1.295 IS DISTORTING EXCESSIVELY.
   ELEMENT SE_SKIN-1.295 IS DISTORTING EXCESSIVELY.
   ELEMENT SE_SKIN-1.295 IS DISTORTING EXCESSIVELY.
   ELEMENT SE_SKIN-1.296 IS DISTORTING EXCESSIVELY.
   ELEMENT SE_SKIN-1.296 IS DISTORTING EXCESSIVELY.
   ELEMENT SE_SKIN-1.296 IS DISTORTING EXCESSIVELY.
   ELEMENT SE_SKIN-1.296 IS DISTORTING EXCESSIVELY.
   ELEMENT SE_SKIN-1.296 IS DISTORTING EXCESSIVELY.
   ELEMENT SE_SKIN-1.296 IS DISTORTING EXCESSIVELY.
   ELEMENT SE_SKIN-1.297 IS DISTORTING EXCESSIVELY.
   ELEMENT SE_SKIN-1.297 IS DISTORTING EXCESSIVELY.
   ELEMENT SE_SKIN-1.297 IS DISTORTING EXCESSIVELY.
   ELEMENT SE_SKIN-1.297 IS DISTORTING EXCESSIVELY.
   ELEMENT SE_SKIN-1.297 IS DISTORTING EXCESSIVELY.
   ELEMENT SE_SKIN-1.298 IS DISTORTING EXCESSIVELY.
   ELEMENT SE_SKIN-1.298 IS DISTORTING EXCESSIVELY.
   ELEMENT SE_SKIN-1.298 IS DISTORTING EXCESSIVELY.
   ELEMENT SE_SKIN-1.298 IS DISTORTING EXCESSIVELY.
   ELEMENT SE_SKIN-1.299 IS DISTORTING EXCESSIVELY.
   ELEMENT SE_SKIN-1.299 IS DISTORTING EXCESSIVELY.
   ELEMENT SE_SKIN-1.299 IS DISTORTING EXCESSIVELY.
   ELEMENT SE_SKIN-1.299 IS DISTORTING EXCESSIVELY.
   ELEMENT SE_SKIN-1.299 IS DISTORTING EXCESSIVELY.
   ELEMENT SE_SKIN-1.299 IS DISTORTING EXCESSIVELY.
   ELEMENT SE_SKIN-1.299 IS DISTORTING EXCESSIVELY.
   ELEMENT SE_SKIN-1.300 IS DISTORTING EXCESSIVELY.
   ELEMENT SE_SKIN-1.300 IS DISTORTING EXCESSIVELY.
   ELEMENT SE_SKIN-1.300 IS DISTORTING EXCESSIVELY.
   ELEMENT SE_SKIN-1.301 IS DISTORTING EXCESSIVELY.
   ELEMENT SE_SKIN-1.301 IS DISTORTING EXCESSIVELY.
   ELEMENT SE_SKIN-1.301 IS DISTORTING EXCESSIVELY.
   ELEMENT SE_SKIN-1.302 IS DISTORTING EXCESSIVELY.
   ELEMENT SE_SKIN-1.302 IS DISTORTING EXCESSIVELY.
   ELEMENT SE_SKIN-1.302 IS DISTORTING EXCESSIVELY.
   ELEMENT SE_SKIN-1.302 IS DISTORTING EXCESSIVELY.
   ELEMENT SE_SKIN-1.302 IS DISTORTING EXCESSIVELY.
   ELEMENT SE_SKIN-1.303 IS DISTORTING EXCESSIVELY.
   ELEMENT SE_SKIN-1.303 IS DISTORTING EXCESSIVELY.
   ELEMENT SE_SKIN-1.303 IS DISTORTING EXCESSIVELY.
   ELEMENT SE_SKIN-1.303 IS DISTORTING EXCESSIVELY.
   ELEMENT SE_SKIN-1.303 IS DISTORTING EXCESSIVELY.
   ELEMENT SE_SKIN-1.303 IS DISTORTING EXCESSIVELY.
   ELEMENT SE_SKIN-1.304 IS DISTORTING EXCESSIVELY.
   ELEMENT SE_SKIN-1.304 IS DISTORTING EXCESSIVELY.
   ELEMENT SE_SKIN-1.305 IS DISTORTING EXCESSIVELY.
   ELEMENT SE_SKIN-1.305 IS DISTORTING EXCESSIVELY.
   ELEMENT SE_SKIN-1.306 IS DISTORTING EXCESSIVELY.
   ELEMENT SE_SKIN-1.306 IS DISTORTING EXCESSIVELY.
   ELEMENT SE_SKIN-1.306 IS DISTORTING EXCESSIVELY.
   ELEMENT SE_SKIN-1.306 IS DISTORTING EXCESSIVELY.
   ELEMENT SE_SKIN-1.306 IS DISTORTING EXCESSIVELY.
   ELEMENT SE_SKIN-1.306 IS DISTORTING EXCESSIVELY.
   ELEMENT SE_SKIN-1.307 IS DISTORTING EXCESSIVELY.
   ELEMENT SE_SKIN-1.307 IS DISTORTING EXCESSIVELY.
   ELEMENT SE_SKIN-1.307 IS DISTORTING EXCESSIVELY.
   ELEMENT SE_SKIN-1.307 IS DISTORTING EXCESSIVELY.
   ELEMENT SE_SKIN-1.307 IS DISTORTING EXCESSIVELY.
   ELEMENT SE_SKIN-1.308 IS DISTORTING EXCESSIVELY.
   ELEMENT SE_SKIN-1.308 IS DISTORTING EXCESSIVELY.
   ELEMENT SE_SKIN-1.308 IS DISTORTING EXCESSIVELY.
   ELEMENT SE_SKIN-1.309 IS DISTORTING EXCESSIVELY.
   ELEMENT SE_SKIN-1.309 IS DISTORTING EXCESSIVELY.
   ELEMENT SE_SKIN-1.309 IS DISTORTING EXCESSIVELY.
   ELEMENT SE_SKIN-1.310 IS DISTORTING EXCESSIVELY.
   ELEMENT SE_SKIN-1.310 IS DISTORTING EXCESSIVELY.
   ELEMENT SE_SKIN-1.310 IS DISTORTING EXCESSIVELY.
   ELEMENT SE_SKIN-1.310 IS DISTORTING EXCESSIVELY.
   ELEMENT SE_SKIN-1.310 IS DISTORTING EXCESSIVELY.
   ELEMENT SE_SKIN-1.310 IS DISTORTING EXCESSIVELY.
   ELEMENT SE_SKIN-1.310 IS DISTORTING EXCESSIVELY.
   ELEMENT SE_SKIN-1.311 IS DISTORTING EXCESSIVELY.
   ELEMENT SE_SKIN-1.311 IS DISTORTING EXCESSIVELY.
   ELEMENT SE_SKIN-1.311 IS DISTORTING EXCESSIVELY.
   ELEMENT SE_SKIN-1.311 IS DISTORTING EXCESSIVELY.
   ELEMENT SE_SKIN-1.312 IS DISTORTING EXCESSIVELY.
   ELEMENT SE_SKIN-1.312 IS DISTORTING EXCESSIVELY.
   ELEMENT SE_SKIN-1.312 IS DISTORTING EXCESSIVELY.
   ELEMENT SE_SKIN-1.312 IS DISTORTING EXCESSIVELY.
   ELEMENT SE_SKIN-1.312 IS DISTORTING EXCESSIVELY.
   ELEMENT SE_SKIN-1.313 IS DISTORTING EXCESSIVELY.
   ELEMENT SE_SKIN-1.313 IS DISTORTING EXCESSIVELY.
   ELEMENT SE_SKIN-1.313 IS DISTORTING EXCESSIVELY.
   ELEMENT SE_SKIN-1.313 IS DISTORTING EXCESSIVELY.
   ELEMENT SE_SKIN-1.313 IS DISTORTING EXCESSIVELY.
   ELEMENT SE_SKIN-1.313 IS DISTORTING EXCESSIVELY.
   ELEMENT SE_SKIN-1.314 IS DISTORTING EXCESSIVELY.
   ELEMENT SE_SKIN-1.314 IS DISTORTING EXCESSIVELY.
   ELEMENT SE_SKIN-1.314 IS DISTORTING EXCESSIVELY.
   ELEMENT SE_SKIN-1.314 IS DISTORTING EXCESSIVELY.
   ELEMENT SE_SKIN-1.314 IS DISTORTING EXCESSIVELY.
   ELEMENT SE_SKIN-1.314 IS DISTORTING EXCESSIVELY.
   ELEMENT SE_SKIN-1.314 IS DISTORTING EXCESSIVELY.
   ELEMENT SE_SKIN-1.315 IS DISTORTING EXCESSIVELY.
   ELEMENT SE_SKIN-1.315 IS DISTORTING EXCESSIVELY.
   ELEMENT SE_SKIN-1.315 IS DISTORTING EXCESSIVELY.
   ELEMENT SE_SKIN-1.315 IS DISTORTING EXCESSIVELY.
   ELEMENT SE_SKIN-1.316 IS DISTORTING EXCESSIVELY.
   ELEMENT SE_SKIN-1.316 IS DISTORTING EXCESSIVELY.
   ELEMENT SE_SKIN-1.316 IS DISTORTING EXCESSIVELY.
   ELEMENT SE_SKIN-1.316 IS DISTORTING EXCESSIVELY.
   ELEMENT SE_SKIN-1.316 IS DISTORTING EXCESSIVELY.
   ELEMENT SE_SKIN-1.316 IS DISTORTING EXCESSIVELY.
   ELEMENT SE_SKIN-1.316 IS DISTORTING EXCESSIVELY.
   ELEMENT SE_SKIN-1.316 IS DISTORTING EXCESSIVELY.
   ELEMENT SE_SKIN-1.317 IS DISTORTING EXCESSIVELY.
   ELEMENT SE_SKIN-1.317 IS DISTORTING EXCESSIVELY.
   ELEMENT SE_SKIN-1.317 IS DISTORTING EXCESSIVELY.
   ELEMENT SE_SKIN-1.317 IS DISTORTING EXCESSIVELY.
   ELEMENT SE_SKIN-1.318 IS DISTORTING EXCESSIVELY.
   ELEMENT SE_SKIN-1.318 IS DISTORTING EXCESSIVELY.
   ELEMENT SE_SKIN-1.318 IS DISTORTING EXCESSIVELY.
   ELEMENT SE_SKIN-1.319 IS DISTORTING EXCESSIVELY.
   ELEMENT SE_SKIN-1.319 IS DISTORTING EXCESSIVELY.
   ELEMENT SE_SKIN-1.319 IS DISTORTING EXCESSIVELY.
   ELEMENT SE_SKIN-1.319 IS DISTORTING EXCESSIVELY.
   ELEMENT SE_SKIN-1.319 IS DISTORTING EXCESSIVELY.
   ELEMENT SE_SKIN-1.320 IS DISTORTING EXCESSIVELY.
   ELEMENT SE_SKIN-1.321 IS DISTORTING EXCESSIVELY.
   ELEMENT SE_SKIN-1.321 IS DISTORTING EXCESSIVELY.
   ELEMENT SE_SKIN-1.321 IS DISTORTING EXCESSIVELY.
   ELEMENT SE_SKIN-1.322 IS DISTORTING EXCESSIVELY.
   ELEMENT SE_SKIN-1.322 IS DISTORTING EXCESSIVELY.
   ELEMENT SE_SKIN-1.322 IS DISTORTING EXCESSIVELY.
   ELEMENT SE_SKIN-1.322 IS DISTORTING EXCESSIVELY.
   ELEMENT SE_SKIN-1.322 IS DISTORTING EXCESSIVELY.
   ELEMENT SE_SKIN-1.322 IS DISTORTING EXCESSIVELY.
   ELEMENT SE_SKIN-1.322 IS DISTORTING EXCESSIVELY.
   ELEMENT SE_SKIN-1.322 IS DISTORTING EXCESSIVELY.
   ELEMENT SE_SKIN-1.323 IS DISTORTING EXCESSIVELY.
   ELEMENT SE_SKIN-1.323 IS DISTORTING EXCESSIVELY.
   ELEMENT SE_SKIN-1.323 IS DISTORTING EXCESSIVELY.
   ELEMENT SE_SKIN-1.323 IS DISTORTING EXCESSIVELY.
   ELEMENT SE_SKIN-1.324 IS DISTORTING EXCESSIVELY.
   ELEMENT SE_SKIN-1.324 IS DISTORTING EXCESSIVELY.
   ELEMENT SE_SKIN-1.324 IS DISTORTING EXCESSIVELY.
   ELEMENT SE_SKIN-1.325 IS DISTORTING EXCESSIVELY.
   ELEMENT SE_SKIN-1.325 IS DISTORTING EXCESSIVELY.
   ELEMENT SE_SKIN-1.325 IS DISTORTING EXCESSIVELY.
   ELEMENT SE_SKIN-1.326 IS DISTORTING EXCESSIVELY.
   ELEMENT SE_SKIN-1.326 IS DISTORTING EXCESSIVELY.
   ELEMENT SE_SKIN-1.326 IS DISTORTING EXCESSIVELY.
[...]
   0 ARE SEVERE DISCONTINUITY ITERATIONS AND  1 ARE EQUILIBRIUM ITERATIONS.

 TIME INCREMENT COMPLETED   1.00    ,  FRACTION OF STEP COMPLETED  0.300    
 STEP TIME COMPLETED        3.00    ,  TOTAL TIME COMPLETED         23.0    


  INCREMENT     4 STARTS. ATTEMPT NUMBER  1, TIME INCREMENT   1.00    

  NUMBER OF EQUATIONS =     12976     NUMBER OF RHS =    1
  NUMBER OF FLOATING PT. OPERATIONS =  6.83E+08

     CHECK POINT   START OF SOLVER    

     CHECK POINT  END OF SOLVER       

       ELAPSED USER TIME (SEC)      =  0.18000    
       ELAPSED SYSTEM TIME (SEC)    =  1.00000E-02
       ELAPSED TOTAL CPU TIME (SEC) =  0.19000    
       ELAPSED WALLCLOCK TIME (SEC) =          0

               CONVERGENCE CHECKS FOR EQUILIBRIUM ITERATION     1


 AVERAGE FORCE                      7.264E-06   TIME AVG. FORCE       7.051E-06
 LARGEST RESIDUAL FORCE             1.486E-08   AT NODE        304   DOF  3
   INSTANCE: SE_SKIN-1                                                                       
 LARGEST INCREMENT OF DISP.        -0.960       AT NODE       4141   DOF  2
   INSTANCE: SE_SKIN-1                                                                       
 LARGEST CORRECTION TO DISP.       -6.377E-04   AT NODE        769   DOF  3
   INSTANCE: SE_SKIN-1                                                                       
          THE FORCE     EQUILIBRIUM EQUATIONS HAVE CONVERGED

 AVERAGE MOMENT                      0.00       TIME AVG. MOMENT      1.000E-02
 LARGEST RESIDUAL MOMENT             0.00       AT NODE          4   DOF  5
   INSTANCE:                                                                                 
 LARGEST INCREMENT OF ROTATION     -5.954E-05   AT NODE          4   DOF  4
   INSTANCE: {assembly node}                                                                 
 LARGEST CORRECTION TO ROTATION    -5.421E-20   AT NODE          4   DOF  4
   INSTANCE: {assembly node}                                                                 
          THERE IS ZERO MOMENT    EVERYWHERE

 AVERAGE CAV. VOL.                  1.333E-02   TIME AVG. CAV. VOL.   1.333E-02
 ALL CAV. VOL. RESIDUALS ARE ZERO
 LARGEST INCREMENT OF H.PRESS.      5.000E-06   AT NODE          3   DOF  8
   INSTANCE: {assembly node}                                                                 
 LARGEST CORRECTION TO H.PRESS.     6.146E-35   AT NODE          3   DOF  8
   INSTANCE: {assembly node}                                                                 
          THE CAV. VOL. EQUILIBRIUM RESPONSE WAS LINEAR IN THIS INCREMENT

 ITERATION SUMMARY FOR THE INCREMENT:   1 TOTAL ITERATIONS, OF WHICH
   0 ARE SEVERE DISCONTINUITY ITERATIONS AND  1 ARE EQUILIBRIUM ITERATIONS.

 TIME INCREMENT COMPLETED   1.00    ,  FRACTION OF STEP COMPLETED  0.400    
 STEP TIME COMPLETED        4.00    ,  TOTAL TIME COMPLETED         24.0    


  INCREMENT     5 STARTS. ATTEMPT NUMBER  1, TIME INCREMENT   1.00    

  NUMBER OF EQUATIONS =     12976     NUMBER OF RHS =    1
  NUMBER OF FLOATING PT. OPERATIONS =  6.83E+08

     CHECK POINT   START OF SOLVER    

     CHECK POINT  END OF SOLVER       

       ELAPSED USER TIME (SEC)      =  0.19000    
       ELAPSED SYSTEM TIME (SEC)    =   0.0000    
       ELAPSED TOTAL CPU TIME (SEC) =  0.19000    
       ELAPSED WALLCLOCK TIME (SEC) =          0

               CONVERGENCE CHECKS FOR EQUILIBRIUM ITERATION     1


 AVERAGE FORCE                      7.406E-06   TIME AVG. FORCE       7.122E-06
 LARGEST RESIDUAL FORCE             1.757E-08   AT NODE        784   DOF  3
   INSTANCE: SE_SKIN-1                                                                       
 LARGEST INCREMENT OF DISP.        -0.960       AT NODE       4141   DOF  2
   INSTANCE: SE_SKIN-1                                                                       
 LARGEST CORRECTION TO DISP.       -5.953E-04   AT NODE        769   DOF  3
   INSTANCE: SE_SKIN-1                                                                       
          THE FORCE     EQUILIBRIUM EQUATIONS HAVE CONVERGED

 AVERAGE MOMENT                      0.00       TIME AVG. MOMENT      1.000E-02
 LARGEST RESIDUAL MOMENT             0.00       AT NODE          4   DOF  5
   INSTANCE:                                                                                 
 LARGEST INCREMENT OF ROTATION     -5.954E-05   AT NODE          4   DOF  4
   INSTANCE: {assembly node}                                                                 
 LARGEST CORRECTION TO ROTATION     5.421E-20   AT NODE          4   DOF  4
   INSTANCE: {assembly node}                                                                 
          THERE IS ZERO MOMENT    EVERYWHERE

 AVERAGE CAV. VOL.                  1.333E-02   TIME AVG. CAV. VOL.   1.333E-02
 ALL CAV. VOL. RESIDUALS ARE ZERO
 LARGEST INCREMENT OF H.PRESS.      5.000E-06   AT NODE          3   DOF  8
   INSTANCE: {assembly node}                                                                 
 LARGEST CORRECTION TO H.PRESS.    -2.711E-20   AT NODE          3   DOF  8
   INSTANCE: {assembly node}                                                                 
          THE CAV. VOL. EQUILIBRIUM RESPONSE WAS LINEAR IN THIS INCREMENT

 ITERATION SUMMARY FOR THE INCREMENT:   1 TOTAL ITERATIONS, OF WHICH
   0 ARE SEVERE DISCONTINUITY ITERATIONS AND  1 ARE EQUILIBRIUM ITERATIONS.

 TIME INCREMENT COMPLETED   1.00    ,  FRACTION OF STEP COMPLETED  0.500    
 STEP TIME COMPLETED        5.00    ,  TOTAL TIME COMPLETED         25.0    


  INCREMENT     6 STARTS. ATTEMPT NUMBER  1, TIME INCREMENT   1.00    

  NUMBER OF EQUATIONS =     12976     NUMBER OF RHS =    1
  NUMBER OF FLOATING PT. OPERATIONS =  6.83E+08

     CHECK POINT   START OF SOLVER    

     CHECK POINT  END OF SOLVER       

       ELAPSED USER TIME (SEC)      =  0.19000    
       ELAPSED SYSTEM TIME (SEC)    =  2.00000E-02
       ELAPSED TOTAL CPU TIME (SEC) =  0.21000    
       ELAPSED WALLCLOCK TIME (SEC) =          0

               CONVERGENCE CHECKS FOR EQUILIBRIUM ITERATION     1


 AVERAGE FORCE                      7.550E-06   TIME AVG. FORCE       7.193E-06
 LARGEST RESIDUAL FORCE             1.567E-08   AT NODE        304   DOF  3
   INSTANCE: SE_SKIN-1                                                                       
 LARGEST INCREMENT OF DISP.        -0.960       AT NODE       4141   DOF  2
   INSTANCE: SE_SKIN-1                                                                       
 LARGEST CORRECTION TO DISP.       -5.834E-04   AT NODE        769   DOF  3
   INSTANCE: SE_SKIN-1                                                                       
          THE FORCE     EQUILIBRIUM EQUATIONS HAVE CONVERGED

 AVERAGE MOMENT                      0.00       TIME AVG. MOMENT      1.000E-02
 LARGEST RESIDUAL MOMENT             0.00       AT NODE          4   DOF  5
   INSTANCE:                                                                                 
 LARGEST INCREMENT OF ROTATION     -5.954E-05   AT NODE          4   DOF  4
   INSTANCE: {assembly node}                                                                 
 LARGEST CORRECTION TO ROTATION    -2.711E-20   AT NODE          4   DOF  4
   INSTANCE: {assembly node}                                                                 
          THERE IS ZERO MOMENT    EVERYWHERE

 AVERAGE CAV. VOL.                  1.333E-02   TIME AVG. CAV. VOL.   1.333E-02
 ALL CAV. VOL. RESIDUALS ARE ZERO
 LARGEST INCREMENT OF H.PRESS.      5.000E-06   AT NODE          3   DOF  8
   INSTANCE: {assembly node}                                                                 
 LARGEST CORRECTION TO H.PRESS.     2.711E-20   AT NODE          3   DOF  8
   INSTANCE: {assembly node}                                                                 
          THE CAV. VOL. EQUILIBRIUM RESPONSE WAS LINEAR IN THIS INCREMENT

 ITERATION SUMMARY FOR THE INCREMENT:   1 TOTAL ITERATIONS, OF WHICH
   0 ARE SEVERE DISCONTINUITY ITERATIONS AND  1 ARE EQUILIBRIUM ITERATIONS.

 TIME INCREMENT COMPLETED   1.00    ,  FRACTION OF STEP COMPLETED  0.600    
 STEP TIME COMPLETED        6.00    ,  TOTAL TIME COMPLETED         26.0    


  INCREMENT     7 STARTS. ATTEMPT NUMBER  1, TIME INCREMENT   1.00    

  NUMBER OF EQUATIONS =     12976     NUMBER OF RHS =    1
  NUMBER OF FLOATING PT. OPERATIONS =  6.83E+08

     CHECK POINT   START OF SOLVER    

     CHECK POINT  END OF SOLVER       

       ELAPSED USER TIME (SEC)      =  0.20000    
       ELAPSED SYSTEM TIME (SEC)    =  1.00000E-02
       ELAPSED TOTAL CPU TIME (SEC) =  0.21000    
       ELAPSED WALLCLOCK TIME (SEC) =          0

               CONVERGENCE CHECKS FOR EQUILIBRIUM ITERATION     1


 AVERAGE FORCE                      7.694E-06   TIME AVG. FORCE       7.265E-06
 LARGEST RESIDUAL FORCE             2.098E-08   AT NODE        784   DOF  3
   INSTANCE: SE_SKIN-1                                                                       
 LARGEST INCREMENT OF DISP.        -0.960       AT NODE       4141   DOF  2
   INSTANCE: SE_SKIN-1                                                                       
 LARGEST CORRECTION TO DISP.       -5.605E-04   AT NODE        769   DOF  3
   INSTANCE: SE_SKIN-1                                                                       
          THE FORCE     EQUILIBRIUM EQUATIONS HAVE CONVERGED

 AVERAGE MOMENT                      0.00       TIME AVG. MOMENT      1.000E-02
 LARGEST RESIDUAL MOMENT             0.00       AT NODE          4   DOF  5
   INSTANCE:                                                                                 
 LARGEST INCREMENT OF ROTATION     -5.954E-05   AT NODE          4   DOF  4
   INSTANCE: {assembly node}                                                                 
 LARGEST CORRECTION TO ROTATION    -2.711E-20   AT NODE          4   DOF  4
   INSTANCE: {assembly node}                                                                 
          THERE IS ZERO MOMENT    EVERYWHERE

 AVERAGE CAV. VOL.                  1.333E-02   TIME AVG. CAV. VOL.   1.333E-02
 ALL CAV. VOL. RESIDUALS ARE ZERO
 LARGEST INCREMENT OF H.PRESS.      5.000E-06   AT NODE          3   DOF  8
   INSTANCE: {assembly node}                                                                 
 LARGEST CORRECTION TO H.PRESS.    -2.711E-20   AT NODE          3   DOF  8
   INSTANCE: {assembly node}                                                                 
          THE CAV. VOL. EQUILIBRIUM RESPONSE WAS LINEAR IN THIS INCREMENT

 ITERATION SUMMARY FOR THE INCREMENT:   1 TOTAL ITERATIONS, OF WHICH
   0 ARE SEVERE DISCONTINUITY ITERATIONS AND  1 ARE EQUILIBRIUM ITERATIONS.

 TIME INCREMENT COMPLETED   1.00    ,  FRACTION OF STEP COMPLETED  0.700    
 STEP TIME COMPLETED        7.00    ,  TOTAL TIME COMPLETED         27.0    


  INCREMENT     8 STARTS. ATTEMPT NUMBER  1, TIME INCREMENT   1.00    

  NUMBER OF EQUATIONS =     12976     NUMBER OF RHS =    1
  NUMBER OF FLOATING PT. OPERATIONS =  6.83E+08

     CHECK POINT   START OF SOLVER    

     CHECK POINT  END OF SOLVER       

       ELAPSED USER TIME (SEC)      =  0.21000    
       ELAPSED SYSTEM TIME (SEC)    =  1.00000E-02
       ELAPSED TOTAL CPU TIME (SEC) =  0.22000    
       ELAPSED WALLCLOCK TIME (SEC) =          0

               CONVERGENCE CHECKS FOR EQUILIBRIUM ITERATION     1


 AVERAGE FORCE                      7.861E-06   TIME AVG. FORCE       7.339E-06
 LARGEST RESIDUAL FORCE             1.755E-08   AT NODE        304   DOF  3
   INSTANCE: SE_SKIN-1                                                                       
 LARGEST INCREMENT OF DISP.        -0.960       AT NODE       4141   DOF  2
   INSTANCE: SE_SKIN-1                                                                       
 LARGEST CORRECTION TO DISP.       -5.444E-04   AT NODE        769   DOF  3
   INSTANCE: SE_SKIN-1                                                                       
          THE FORCE     EQUILIBRIUM EQUATIONS HAVE CONVERGED

 AVERAGE MOMENT                      0.00       TIME AVG. MOMENT      1.000E-02
 LARGEST RESIDUAL MOMENT             0.00       AT NODE          4   DOF  5
   INSTANCE:                                                                                 
 LARGEST INCREMENT OF ROTATION     -5.954E-05   AT NODE          4   DOF  4
   INSTANCE: {assembly node}                                                                 
 LARGEST CORRECTION TO ROTATION     1.355E-20   AT NODE          4   DOF  4
   INSTANCE: {assembly node}                                                                 
          THERE IS ZERO MOMENT    EVERYWHERE

 AVERAGE CAV. VOL.                  1.333E-02   TIME AVG. CAV. VOL.   1.333E-02
 ALL CAV. VOL. RESIDUALS ARE ZERO
 LARGEST INCREMENT OF H.PRESS.      5.000E-06   AT NODE          3   DOF  8
   INSTANCE: {assembly node}                                                                 
 LARGEST CORRECTION TO H.PRESS.     6.641E-35   AT NODE          3   DOF  8
   INSTANCE: {assembly node}                                                                 
          THE CAV. VOL. EQUILIBRIUM RESPONSE WAS LINEAR IN THIS INCREMENT

 ITERATION SUMMARY FOR THE INCREMENT:   1 TOTAL ITERATIONS, OF WHICH
   0 ARE SEVERE DISCONTINUITY ITERATIONS AND  1 ARE EQUILIBRIUM ITERATIONS.

 TIME INCREMENT COMPLETED   1.00    ,  FRACTION OF STEP COMPLETED  0.800    
 STEP TIME COMPLETED        8.00    ,  TOTAL TIME COMPLETED         28.0    


  INCREMENT     9 STARTS. ATTEMPT NUMBER  1, TIME INCREMENT   1.00    

  NUMBER OF EQUATIONS =     12976     NUMBER OF RHS =    1
  NUMBER OF FLOATING PT. OPERATIONS =  6.83E+08

     CHECK POINT   START OF SOLVER    

     CHECK POINT  END OF SOLVER       

       ELAPSED USER TIME (SEC)      =  0.20000    
       ELAPSED SYSTEM TIME (SEC)    =  1.00000E-02
       ELAPSED TOTAL CPU TIME (SEC) =  0.21000    
       ELAPSED WALLCLOCK TIME (SEC) =          1

               CONVERGENCE CHECKS FOR EQUILIBRIUM ITERATION     1


 AVERAGE FORCE                      8.019E-06   TIME AVG. FORCE       7.415E-06
 LARGEST RESIDUAL FORCE             2.842E-08   AT NODE        784   DOF  3
   INSTANCE: SE_SKIN-1                                                                       
 LARGEST INCREMENT OF DISP.        -0.960       AT NODE       4141   DOF  2
   INSTANCE: SE_SKIN-1                                                                       
 LARGEST CORRECTION TO DISP.       -5.269E-04   AT NODE        769   DOF  3
   INSTANCE: SE_SKIN-1                                                                       
          THE FORCE     EQUILIBRIUM EQUATIONS HAVE CONVERGED

 AVERAGE MOMENT                      0.00       TIME AVG. MOMENT      1.000E-02
 LARGEST RESIDUAL MOMENT             0.00       AT NODE          4   DOF  5
   INSTANCE:                                                                                 
 LARGEST INCREMENT OF ROTATION     -5.954E-05   AT NODE          4   DOF  4
   INSTANCE: {assembly node}                                                                 
 LARGEST CORRECTION TO ROTATION     6.776E-21   AT NODE          4   DOF  4
   INSTANCE: {assembly node}                                                                 
          THERE IS ZERO MOMENT    EVERYWHERE

 AVERAGE CAV. VOL.                  1.333E-02   TIME AVG. CAV. VOL.   1.333E-02
 ALL CAV. VOL. RESIDUALS ARE ZERO
 LARGEST INCREMENT OF H.PRESS.      5.000E-06   AT NODE          3   DOF  8
   INSTANCE: {assembly node}                                                                 
 LARGEST CORRECTION TO H.PRESS.     2.711E-20   AT NODE          3   DOF  8
   INSTANCE: {assembly node}                                                                 
          THE CAV. VOL. EQUILIBRIUM RESPONSE WAS LINEAR IN THIS INCREMENT

 ITERATION SUMMARY FOR THE INCREMENT:   1 TOTAL ITERATIONS, OF WHICH
   0 ARE SEVERE DISCONTINUITY ITERATIONS AND  1 ARE EQUILIBRIUM ITERATIONS.

 TIME INCREMENT COMPLETED   1.00    ,  FRACTION OF STEP COMPLETED  0.900    
 STEP TIME COMPLETED        9.00    ,  TOTAL TIME COMPLETED         29.0    


  INCREMENT    10 STARTS. ATTEMPT NUMBER  1, TIME INCREMENT   1.00    

  NUMBER OF EQUATIONS =     12976     NUMBER OF RHS =    1
  NUMBER OF FLOATING PT. OPERATIONS =  6.83E+08

     CHECK POINT   START OF SOLVER    

     CHECK POINT  END OF SOLVER       

       ELAPSED USER TIME (SEC)      =  0.19000    
       ELAPSED SYSTEM TIME (SEC)    =  3.00000E-02
       ELAPSED TOTAL CPU TIME (SEC) =  0.22000    
       ELAPSED WALLCLOCK TIME (SEC) =          0

               CONVERGENCE CHECKS FOR EQUILIBRIUM ITERATION     1


 AVERAGE FORCE                      8.257E-06   TIME AVG. FORCE       7.499E-06
 LARGEST RESIDUAL FORCE             2.159E-08   AT NODE        304   DOF  3
   INSTANCE: SE_SKIN-1                                                                       
 LARGEST INCREMENT OF DISP.        -0.960       AT NODE       4141   DOF  2
   INSTANCE: SE_SKIN-1                                                                       
 LARGEST CORRECTION TO DISP.       -5.120E-04   AT NODE        769   DOF  3
   INSTANCE: SE_SKIN-1                                                                       
          THE FORCE     EQUILIBRIUM EQUATIONS HAVE CONVERGED

 AVERAGE MOMENT                      0.00       TIME AVG. MOMENT      1.000E-02
 LARGEST RESIDUAL MOMENT             0.00       AT NODE          4   DOF  5
   INSTANCE:                                                                                 
 LARGEST INCREMENT OF ROTATION     -5.954E-05   AT NODE          4   DOF  4
   INSTANCE: {assembly node}                                                                 
 LARGEST CORRECTION TO ROTATION     3.388E-21   AT NODE          4   DOF  6
   INSTANCE: {assembly node}                                                                 
          THERE IS ZERO MOMENT    EVERYWHERE

 AVERAGE CAV. VOL.                  1.333E-02   TIME AVG. CAV. VOL.   1.333E-02
 ALL CAV. VOL. RESIDUALS ARE ZERO
 LARGEST INCREMENT OF H.PRESS.      5.000E-06   AT NODE          3   DOF  8
   INSTANCE: {assembly node}                                                                 
 LARGEST CORRECTION TO H.PRESS.    -2.711E-20   AT NODE          3   DOF  8
   INSTANCE: {assembly node}                                                                 
          THE CAV. VOL. EQUILIBRIUM RESPONSE WAS LINEAR IN THIS INCREMENT

 ITERATION SUMMARY FOR THE INCREMENT:   1 TOTAL ITERATIONS, OF WHICH
   0 ARE SEVERE DISCONTINUITY ITERATIONS AND  1 ARE EQUILIBRIUM ITERATIONS.

 TIME INCREMENT COMPLETED   1.00    ,  FRACTION OF STEP COMPLETED   1.00    
 STEP TIME COMPLETED        10.0    ,  TOTAL TIME COMPLETED         30.0    


          THE ANALYSIS HAS BEEN COMPLETED



     ANALYSIS SUMMARY:
     TOTAL OF         34  INCREMENTS
                       1  CUTBACKS IN AUTOMATIC INCREMENTATION
                      92  ITERATIONS INCLUDING CONTACT ITERATIONS IF PRESENT
                      92  PASSES THROUGH THE EQUATION SOLVER OF WHICH 
                      92  INVOLVE MATRIX DECOMPOSITION, INCLUDING
                       0  DECOMPOSITION(S) OF THE MASS MATRIX
                       1  REORDERING OF EQUATIONS TO MINIMIZE WAVEFRONT
                       0  ADDITIONAL RESIDUAL EVALUATIONS FOR LINE SEARCHES
                       0  ADDITIONAL OPERATOR EVALUATIONS FOR LINE SEARCHES
                    1398  WARNING MESSAGES DURING USER INPUT PROCESSING
                     307  WARNING MESSAGES DURING ANALYSIS
                     256  ANALYSIS WARNINGS ARE NUMERICAL PROBLEM MESSAGES
                      50  ANALYSIS WARNINGS ARE NEGATIVE EIGENVALUE MESSAGES
                       0  ERROR MESSAGES



     JOB TIME SUMMARY
       USER TIME (SEC)      =   315.25    
       SYSTEM TIME (SEC)    =   6.6200    
       TOTAL CPU TIME (SEC) =   321.87    
       WALLCLOCK TIME (SEC) =        335
