1

   Abaqus 2020                                  Date 30-May-2021   Time 21:10:18
   For use by PURDUE UNIVERSITY under license from Dassault Systemes or its subsidiary.

                                                                                 
                                                                                 
 STEP    1     INCREMENT     1     STEP TIME    0.00    


                        S T E P       1     S T A T I C   A N A L Y S I S


                                                                                          

     AUTOMATIC TIME CONTROL WITH -
          A SUGGESTED INITIAL TIME INCREMENT OF                0.100    
          AND A TOTAL TIME PERIOD OF                            10.0    
          THE MINIMUM TIME INCREMENT ALLOWED IS                1.000E-04
          THE MAXIMUM TIME INCREMENT ALLOWED IS                 10.0    

     LINEAR EQUATION SOLVER TYPE         DIRECT SPARSE

 CONVERGENCE TOLERANCE PARAMETERS FOR FORCE    
     CRITERION FOR RESIDUAL FORCE     FOR A NONLINEAR PROBLEM          5.000E-03
     CRITERION FOR DISP.    CORRECTION IN A NONLINEAR PROBLEM          1.000E-02
     INITIAL VALUE OF TIME AVERAGE FORCE                               1.000E-02
     AVERAGE FORCE     IS TIME AVERAGE FORCE    
     ALTERNATE CRIT. FOR RESIDUAL FORCE     FOR A NONLINEAR PROBLEM    2.000E-02
     CRITERION FOR ZERO FORCE     RELATIVE TO TIME AVRG. FORCE         1.000E-05
     CRITERION FOR RESIDUAL FORCE     WHEN THERE IS ZERO FLUX          1.000E-05
     CRITERION FOR DISP.    CORRECTION WHEN THERE IS ZERO FLUX         1.000E-03
     CRITERION FOR RESIDUAL FORCE     FOR A LINEAR INCREMENT           1.000E-08
     FIELD CONVERSION RATIO                                             1.00    
     CRITERION FOR ZERO FORCE     REL. TO TIME AVRG. MAX. FORCE        1.000E-05
     CRITERION FOR ZERO DISP.    RELATIVE TO CHARACTERISTIC LENGTH     1.000E-08

 CONVERGENCE TOLERANCE PARAMETERS FOR MOMENT   
     CRITERION FOR RESIDUAL MOMENT    FOR A NONLINEAR PROBLEM          5.000E-03
     CRITERION FOR ROTATION CORRECTION IN A NONLINEAR PROBLEM          1.000E-02
     INITIAL VALUE OF TIME AVERAGE MOMENT                              1.000E-02
     AVERAGE MOMENT    IS TIME AVERAGE MOMENT   
     ALTERNATE CRIT. FOR RESIDUAL MOMENT    FOR A NONLINEAR PROBLEM    2.000E-02
     CRITERION FOR ZERO MOMENT    RELATIVE TO TIME AVRG. MOMENT        1.000E-05
     CRITERION FOR RESIDUAL MOMENT    WHEN THERE IS ZERO FLUX          1.000E-05
     CRITERION FOR ROTATION CORRECTION WHEN THERE IS ZERO FLUX         1.000E-03
     CRITERION FOR RESIDUAL MOMENT    FOR A LINEAR INCREMENT           1.000E-08
     FIELD CONVERSION RATIO                                             1.00    
     CRITERION FOR ZERO MOMENT    REL. TO TIME AVRG. MAX. MOMENT       1.000E-05

     VOLUMETRIC STRAIN COMPATIBILITY TOLERANCE FOR HYBRID SOLIDS       1.000E-05
     AXIAL STRAIN COMPATIBILITY TOLERANCE FOR HYBRID BEAMS             1.000E-05
     TRANS. SHEAR STRAIN COMPATIBILITY TOLERANCE FOR HYBRID BEAMS      1.000E-05
     SOFT CONTACT CONSTRAINT COMPATIBILITY TOLERANCE FOR P>P0          5.000E-03
     SOFT CONTACT CONSTRAINT COMPATIBILITY TOLERANCE FOR P=0.0         0.100    
     CONTACT FORCE ERROR TOLERANCE FOR CONVERT SDI=YES                 1.00    
     DISPLACEMENT COMPATIBILITY TOLERANCE FOR DCOUP ELEMENTS           1.000E-05
     ROTATION COMPATIBILITY TOLERANCE FOR DCOUP ELEMENTS               1.000E-05

 EQUILIBRIUM WILL BE CHECKED FOR SEVERE DISCONTINUITY ITERATIONS

 TIME INCREMENTATION CONTROL PARAMETERS:
     FIRST EQUILIBRIUM ITERATION FOR CONSECUTIVE DIVERGENCE CHECK              4
     EQUILIBRIUM ITERATION AT WHICH LOG. CONVERGENCE RATE CHECK BEGINS         8
     EQUILIBRIUM ITERATION AFTER WHICH ALTERNATE RESIDUAL IS USED              9
     MAXIMUM EQUILIBRIUM ITERATIONS ALLOWED                                   16
     EQUILIBRIUM ITERATION COUNT FOR CUT-BACK IN NEXT INCREMENT               10
     MAXIMUM EQUILIB. ITERS IN TWO INCREMENTS FOR TIME INCREMENT INCREASE      4
     MAXIMUM ITERATIONS FOR SEVERE DISCONTINUITIES                            50
     MAXIMUM ATTEMPTS ALLOWED IN AN INCREMENT                                  5
     MAXIMUM DISCON. ITERS IN TWO INCREMENTS FOR TIME INCREMENT INCREASE      50
     MAXIMUM CONTACT AUGMENTATIONS FOR *SURFACE BEHAVIOR,AUGMENTED LAGRANGE   50
     CUT-BACK FACTOR AFTER DIVERGENCE                                 0.2500    
     CUT-BACK FACTOR FOR TOO SLOW CONVERGENCE                         0.5000    
     CUT-BACK FACTOR AFTER TOO MANY EQUILIBRIUM ITERATIONS            0.7500    
     CUT-BACK FACTOR AFTER TOO MANY SEVERE DISCONTINUITY ITERATIONS   0.2500    
     CUT-BACK FACTOR AFTER PROBLEMS IN ELEMENT ASSEMBLY               0.2500    
     INCREASE FACTOR AFTER TWO INCREMENTS THAT CONVERGE QUICKLY        1.500    
     MAX. TIME INCREMENT INCREASE FACTOR ALLOWED                       1.500    
     MAX. TIME INCREMENT INCREASE FACTOR ALLOWED (DYNAMICS)            1.250    
     MAX. TIME INCREMENT INCREASE FACTOR ALLOWED (DIFFUSION)           2.000    
     MINIMUM TIME INCREMENT RATIO FOR EXTRAPOLATION TO OCCUR          0.1000    
     MAX. RATIO OF TIME INCREMENT TO STABILITY LIMIT                   1.000    
     FRACTION OF STABILITY LIMIT FOR NEW TIME INCREMENT               0.9500    
     TIME INCREMENT INCREASE FACTOR BEFORE A TIME POINT                1.000    
     GLOBAL STABILIZATION CONTROL IS NOT USED

          PRINT OF INCREMENT NUMBER, TIME, ETC., EVERY    1  INCREMENTS

     THE MAXIMUM NUMBER OF INCREMENTS IN THIS STEP IS                     100

          LARGE DISPLACEMENT THEORY WILL BE USED

     LINEAR EXTRAPOLATION WILL BE USED

     CHARACTERISTIC ELEMENT LENGTH      3.07    

     DETAILS REGARDING ACTUAL SOLUTION WAVEFRONT REQUESTED

     DETAILED OUTPUT OF DIAGNOSTICS TO DATABASE REQUESTED

     PRINT OF INCREMENT NUMBER, TIME, ETC., TO THE MESSAGE FILE EVERY     1  INCREMENTS
 ***************************************************
 deformation gradient
   1.00000000000000       0.000000000000000E+000  0.000000000000000E+000
  0.000000000000000E+000   1.00000000000000       0.000000000000000E+000
  0.000000000000000E+000  0.000000000000000E+000   1.00000000000000     
 J
   1.00000000000000     
 C
   1.00000000000000       0.000000000000000E+000  0.000000000000000E+000
  0.000000000000000E+000   1.00000000000000       0.000000000000000E+000
  0.000000000000000E+000  0.000000000000000E+000   1.00000000000000     
 Chat
   1.00000000000000       0.000000000000000E+000  0.000000000000000E+000
  0.000000000000000E+000   1.00000000000000       0.000000000000000E+000
  0.000000000000000E+000  0.000000000000000E+000   1.00000000000000     
 I1hat, I2hat, I4ahat, I4shat
   3.00000000000000        3.00000000000000        1.00000000000000     
   1.00000000000000     
 S^hat
  3.063952448142485E-003  0.000000000000000E+000  0.000000000000000E+000
  0.000000000000000E+000  3.549961814062381E-003  0.000000000000000E+000
  0.000000000000000E+000  0.000000000000000E+000  2.620871371385936E-003
 S_iso
 -1.430952146046845E-005  0.000000000000000E+000  0.000000000000000E+000
  0.000000000000000E+000  4.716998444594279E-004  0.000000000000000E+000
  0.000000000000000E+000  0.000000000000000E+000 -4.573905982170178E-004
 S
 -1.430952146046845E-005  0.000000000000000E+000  0.000000000000000E+000
  0.000000000000000E+000  4.716998444594279E-004  0.000000000000000E+000
  0.000000000000000E+000  0.000000000000000E+000 -4.573905982170178E-004
 sigma
 -1.430952146046845E-005  0.000000000000000E+000  0.000000000000000E+000
  0.000000000000000E+000  4.716998444594279E-004  0.000000000000000E+000
  0.000000000000000E+000  0.000000000000000E+000 -4.573905982170178E-004
 Psi24a
  5.115989765905884E-005
 CChat
  4.913165611957747E-003  0.000000000000000E+000  0.000000000000000E+000
  0.000000000000000E+000  7.480457292745978E-003  0.000000000000000E+000
  0.000000000000000E+000  0.000000000000000E+000  6.001448660827543E-003
  0.000000000000000E+000 -8.949645729622181E-004  0.000000000000000E+000
 -8.949645729622181E-004  0.000000000000000E+000  0.000000000000000E+000
  0.000000000000000E+000  0.000000000000000E+000  0.000000000000000E+000
  0.000000000000000E+000  0.000000000000000E+000 -8.949645729622181E-004
  0.000000000000000E+000  0.000000000000000E+000  0.000000000000000E+000
 -8.949645729622181E-004  0.000000000000000E+000  0.000000000000000E+000
  0.000000000000000E+000 -8.949645729622181E-004  0.000000000000000E+000
 -8.949645729622181E-004  0.000000000000000E+000  0.000000000000000E+000
  0.000000000000000E+000  0.000000000000000E+000  0.000000000000000E+000
  7.480457292745978E-003  0.000000000000000E+000  0.000000000000000E+000
  0.000000000000000E+000  6.592019440194889E-003  0.000000000000000E+000
  0.000000000000000E+000  0.000000000000000E+000  6.668901999676602E-003
  0.000000000000000E+000  0.000000000000000E+000  0.000000000000000E+000
  0.000000000000000E+000  0.000000000000000E+000 -8.949645729622181E-004
  0.000000000000000E+000 -8.949645729622181E-004  0.000000000000000E+000
  0.000000000000000E+000  0.000000000000000E+000 -8.949645729622181E-004
  0.000000000000000E+000  0.000000000000000E+000  0.000000000000000E+000
 -8.949645729622181E-004  0.000000000000000E+000  0.000000000000000E+000
  0.000000000000000E+000  0.000000000000000E+000  0.000000000000000E+000
  0.000000000000000E+000  0.000000000000000E+000 -8.949645729622181E-004
  0.000000000000000E+000 -8.949645729622181E-004  0.000000000000000E+000
  6.001448660827543E-003  0.000000000000000E+000  0.000000000000000E+000
  0.000000000000000E+000  6.668901999676602E-003  0.000000000000000E+000
  0.000000000000000E+000  0.000000000000000E+000  3.611854108983654E-003
 dShat/dC
 -6.092625463123135E-004  0.000000000000000E+000  0.000000000000000E+000
  0.000000000000000E+000  2.833320879132020E-004  0.000000000000000E+000
  0.000000000000000E+000  0.000000000000000E+000  2.870234546245528E-004
  0.000000000000000E+000 -4.474822864811090E-004  0.000000000000000E+000
 -4.474822864811090E-004  0.000000000000000E+000  0.000000000000000E+000
  0.000000000000000E+000  0.000000000000000E+000  0.000000000000000E+000
  0.000000000000000E+000  0.000000000000000E+000 -4.474822864811090E-004
  0.000000000000000E+000  0.000000000000000E+000  0.000000000000000E+000
 -4.474822864811090E-004  0.000000000000000E+000  0.000000000000000E+000
  0.000000000000000E+000 -4.474822864811090E-004  0.000000000000000E+000
 -4.474822864811090E-004  0.000000000000000E+000  0.000000000000000E+000
  0.000000000000000E+000  0.000000000000000E+000  0.000000000000000E+000
  6.743832940818023E-004  0.000000000000000E+000  0.000000000000000E+000
  0.000000000000000E+000 -1.608868383623429E-004  0.000000000000000E+000
  0.000000000000000E+000  0.000000000000000E+000  6.207501240490815E-004
  0.000000000000000E+000  0.000000000000000E+000  0.000000000000000E+000
  0.000000000000000E+000  0.000000000000000E+000 -4.474822864811090E-004
  0.000000000000000E+000 -4.474822864811090E-004  0.000000000000000E+000
  0.000000000000000E+000  0.000000000000000E+000 -4.474822864811090E-004
  0.000000000000000E+000  0.000000000000000E+000  0.000000000000000E+000
 -4.474822864811090E-004  0.000000000000000E+000  0.000000000000000E+000
  0.000000000000000E+000  0.000000000000000E+000  0.000000000000000E+000
  0.000000000000000E+000  0.000000000000000E+000 -4.474822864811090E-004
  0.000000000000000E+000 -4.474822864811090E-004  0.000000000000000E+000
 -6.512102187741526E-005  0.000000000000000E+000  0.000000000000000E+000
  0.000000000000000E+000 -1.224455586214868E-004  0.000000000000000E+000
  0.000000000000000E+000  0.000000000000000E+000 -9.077738212973922E-004
 CCvol
  0.200000000000000       0.000000000000000E+000  0.000000000000000E+000
  0.000000000000000E+000  0.200000000000000       0.000000000000000E+000
  0.000000000000000E+000  0.000000000000000E+000  0.200000000000000     
  0.000000000000000E+000  0.000000000000000E+000  0.000000000000000E+000
  0.000000000000000E+000  0.000000000000000E+000  0.000000000000000E+000
  0.000000000000000E+000  0.000000000000000E+000  0.000000000000000E+000
  0.000000000000000E+000  0.000000000000000E+000  0.000000000000000E+000
  0.000000000000000E+000  0.000000000000000E+000  0.000000000000000E+000
  0.000000000000000E+000  0.000000000000000E+000  0.000000000000000E+000
  0.000000000000000E+000  0.000000000000000E+000  0.000000000000000E+000
  0.000000000000000E+000  0.000000000000000E+000  0.000000000000000E+000
  0.000000000000000E+000  0.000000000000000E+000  0.000000000000000E+000
  0.200000000000000       0.000000000000000E+000  0.000000000000000E+000
  0.000000000000000E+000  0.200000000000000       0.000000000000000E+000
  0.000000000000000E+000  0.000000000000000E+000  0.200000000000000     
  0.000000000000000E+000  0.000000000000000E+000  0.000000000000000E+000
  0.000000000000000E+000  0.000000000000000E+000  0.000000000000000E+000
  0.000000000000000E+000  0.000000000000000E+000  0.000000000000000E+000
  0.000000000000000E+000  0.000000000000000E+000  0.000000000000000E+000
  0.000000000000000E+000  0.000000000000000E+000  0.000000000000000E+000
  0.000000000000000E+000  0.000000000000000E+000  0.000000000000000E+000
  0.000000000000000E+000  0.000000000000000E+000  0.000000000000000E+000
  0.000000000000000E+000  0.000000000000000E+000  0.000000000000000E+000
  0.000000000000000E+000  0.000000000000000E+000  0.000000000000000E+000
  0.200000000000000       0.000000000000000E+000  0.000000000000000E+000
  0.000000000000000E+000  0.200000000000000       0.000000000000000E+000
  0.000000000000000E+000  0.000000000000000E+000  0.200000000000000     
 CCiso
  2.930841504825026E-003  0.000000000000000E+000  0.000000000000000E+000
  0.000000000000000E+000 -1.764499419532586E-003  0.000000000000000E+000
  0.000000000000000E+000  0.000000000000000E+000 -1.137723039199551E-003
  0.000000000000000E+000  2.183297396640736E-003  0.000000000000000E+000
  2.183297396640736E-003  0.000000000000000E+000  0.000000000000000E+000
  0.000000000000000E+000  0.000000000000000E+000  0.000000000000000E+000
  0.000000000000000E+000  0.000000000000000E+000  2.183297396640736E-003
  0.000000000000000E+000  0.000000000000000E+000  0.000000000000000E+000
  2.183297396640736E-003  0.000000000000000E+000  0.000000000000000E+000
  0.000000000000000E+000  2.183297396640736E-003  0.000000000000000E+000
  2.183297396640736E-003  0.000000000000000E+000  0.000000000000000E+000
  0.000000000000000E+000  0.000000000000000E+000  0.000000000000000E+000
 -1.764499419532586E-003  0.000000000000000E+000  0.000000000000000E+000
  0.000000000000000E+000  2.397478001182296E-003  0.000000000000000E+000
  0.000000000000000E+000  0.000000000000000E+000 -1.576378366290431E-003
  0.000000000000000E+000  0.000000000000000E+000  0.000000000000000E+000
  0.000000000000000E+000  0.000000000000000E+000  2.183297396640736E-003
  0.000000000000000E+000  2.183297396640736E-003  0.000000000000000E+000
  0.000000000000000E+000  0.000000000000000E+000  2.183297396640736E-003
  0.000000000000000E+000  0.000000000000000E+000  0.000000000000000E+000
  2.183297396640736E-003  0.000000000000000E+000  0.000000000000000E+000
  0.000000000000000E+000  0.000000000000000E+000  0.000000000000000E+000
  0.000000000000000E+000  0.000000000000000E+000  2.183297396640736E-003
  0.000000000000000E+000  2.183297396640736E-003  0.000000000000000E+000
 -1.137723039199552E-003  0.000000000000000E+000  0.000000000000000E+000
  0.000000000000000E+000 -1.576378366290431E-003  0.000000000000000E+000
  0.000000000000000E+000  0.000000000000000E+000  3.628882694473997E-003
 CC_ref
  0.202930841504825       0.000000000000000E+000  0.000000000000000E+000
  0.000000000000000E+000  0.198235500580467       0.000000000000000E+000
  0.000000000000000E+000  0.000000000000000E+000  0.198862276960800     
  0.000000000000000E+000  2.183297396640736E-003  0.000000000000000E+000
  2.183297396640736E-003  0.000000000000000E+000  0.000000000000000E+000
  0.000000000000000E+000  0.000000000000000E+000  0.000000000000000E+000
  0.000000000000000E+000  0.000000000000000E+000  2.183297396640736E-003
  0.000000000000000E+000  0.000000000000000E+000  0.000000000000000E+000
  2.183297396640736E-003  0.000000000000000E+000  0.000000000000000E+000
  0.000000000000000E+000  2.183297396640736E-003  0.000000000000000E+000
  2.183297396640736E-003  0.000000000000000E+000  0.000000000000000E+000
  0.000000000000000E+000  0.000000000000000E+000  0.000000000000000E+000
  0.198235500580467       0.000000000000000E+000  0.000000000000000E+000
  0.000000000000000E+000  0.202397478001182       0.000000000000000E+000
  0.000000000000000E+000  0.000000000000000E+000  0.198423621633710     
  0.000000000000000E+000  0.000000000000000E+000  0.000000000000000E+000
  0.000000000000000E+000  0.000000000000000E+000  2.183297396640736E-003
  0.000000000000000E+000  2.183297396640736E-003  0.000000000000000E+000
  0.000000000000000E+000  0.000000000000000E+000  2.183297396640736E-003
  0.000000000000000E+000  0.000000000000000E+000  0.000000000000000E+000
  2.183297396640736E-003  0.000000000000000E+000  0.000000000000000E+000
  0.000000000000000E+000  0.000000000000000E+000  0.000000000000000E+000
  0.000000000000000E+000  0.000000000000000E+000  2.183297396640736E-003
  0.000000000000000E+000  2.183297396640736E-003  0.000000000000000E+000
  0.198862276960800       0.000000000000000E+000  0.000000000000000E+000
  0.000000000000000E+000  0.198423621633710       0.000000000000000E+000
  0.000000000000000E+000  0.000000000000000E+000  0.203628882694474     
 DDSDDE
  0.202902222461904       0.198235500580467       0.198862276960800     
  0.000000000000000E+000  0.000000000000000E+000  0.000000000000000E+000
  0.198235500580467       0.203340877690101       0.198423621633710     
  0.000000000000000E+000  0.000000000000000E+000  0.000000000000000E+000
  0.198862276960800       0.198423621633710       0.202714101498040     
  0.000000000000000E+000  0.000000000000000E+000  0.000000000000000E+000
  0.000000000000000E+000  0.000000000000000E+000  0.000000000000000E+000
  2.411992558140216E-003  0.000000000000000E+000  0.000000000000000E+000
  0.000000000000000E+000  0.000000000000000E+000  0.000000000000000E+000
  0.000000000000000E+000  1.947447336801993E-003  0.000000000000000E+000
  0.000000000000000E+000  0.000000000000000E+000  0.000000000000000E+000
  0.000000000000000E+000  0.000000000000000E+000  2.190452019761941E-003

     COLLECTING MODEL CONSTRAINT INFORMATION FOR OVERCONSTRAINT CHECKS

     COLLECTING STEP CONSTRAINT INFORMATION FOR OVERCONSTRAINT CHECKS


  INCREMENT     1 STARTS. ATTEMPT NUMBER  1, TIME INCREMENT  0.100    
 ***************************************************
 deformation gradient
   1.00000000000000       0.000000000000000E+000  0.000000000000000E+000
  0.000000000000000E+000   1.00000000000000       0.000000000000000E+000
  0.000000000000000E+000  0.000000000000000E+000   1.00000000000000     
 J
   1.00000000000000     
 C
   1.00000000000000       0.000000000000000E+000  0.000000000000000E+000
  0.000000000000000E+000   1.00000000000000       0.000000000000000E+000
  0.000000000000000E+000  0.000000000000000E+000   1.00000000000000     
 Chat
   1.00000000000000       0.000000000000000E+000  0.000000000000000E+000
  0.000000000000000E+000   1.00000000000000       0.000000000000000E+000
  0.000000000000000E+000  0.000000000000000E+000   1.00000000000000     
 I1hat, I2hat, I4ahat, I4shat
   3.00000000000000        3.00000000000000        1.00000000000000     
   1.00000000000000     
 S^hat
  3.063952448142485E-003  0.000000000000000E+000  0.000000000000000E+000
  0.000000000000000E+000  3.549961814062381E-003  0.000000000000000E+000
  0.000000000000000E+000  0.000000000000000E+000  2.620871371385936E-003
 S_iso
 -1.430952146046845E-005  0.000000000000000E+000  0.000000000000000E+000
  0.000000000000000E+000  4.716998444594279E-004  0.000000000000000E+000
  0.000000000000000E+000  0.000000000000000E+000 -4.573905982170178E-004
 S
 -1.430952146046845E-005  0.000000000000000E+000  0.000000000000000E+000
  0.000000000000000E+000  4.716998444594279E-004  0.000000000000000E+000
  0.000000000000000E+000  0.000000000000000E+000 -4.573905982170178E-004
 sigma
 -1.430952146046845E-005  0.000000000000000E+000  0.000000000000000E+000
  0.000000000000000E+000  4.716998444594279E-004  0.000000000000000E+000
  0.000000000000000E+000  0.000000000000000E+000 -4.573905982170178E-004
 Psi24a
  5.115989765905884E-005
 CChat
  4.913165611957747E-003  0.000000000000000E+000  0.000000000000000E+000
  0.000000000000000E+000  7.480457292745978E-003  0.000000000000000E+000
  0.000000000000000E+000  0.000000000000000E+000  6.001448660827543E-003
  0.000000000000000E+000 -8.949645729622181E-004  0.000000000000000E+000
 -8.949645729622181E-004  0.000000000000000E+000  0.000000000000000E+000
  0.000000000000000E+000  0.000000000000000E+000  0.000000000000000E+000
  0.000000000000000E+000  0.000000000000000E+000 -8.949645729622181E-004
  0.000000000000000E+000  0.000000000000000E+000  0.000000000000000E+000
 -8.949645729622181E-004  0.000000000000000E+000  0.000000000000000E+000
  0.000000000000000E+000 -8.949645729622181E-004  0.000000000000000E+000
 -8.949645729622181E-004  0.000000000000000E+000  0.000000000000000E+000
  0.000000000000000E+000  0.000000000000000E+000  0.000000000000000E+000
  7.480457292745978E-003  0.000000000000000E+000  0.000000000000000E+000
  0.000000000000000E+000  6.592019440194889E-003  0.000000000000000E+000
  0.000000000000000E+000  0.000000000000000E+000  6.668901999676602E-003
  0.000000000000000E+000  0.000000000000000E+000  0.000000000000000E+000
  0.000000000000000E+000  0.000000000000000E+000 -8.949645729622181E-004
  0.000000000000000E+000 -8.949645729622181E-004  0.000000000000000E+000
  0.000000000000000E+000  0.000000000000000E+000 -8.949645729622181E-004
  0.000000000000000E+000  0.000000000000000E+000  0.000000000000000E+000
 -8.949645729622181E-004  0.000000000000000E+000  0.000000000000000E+000
  0.000000000000000E+000  0.000000000000000E+000  0.000000000000000E+000
  0.000000000000000E+000  0.000000000000000E+000 -8.949645729622181E-004
  0.000000000000000E+000 -8.949645729622181E-004  0.000000000000000E+000
  6.001448660827543E-003  0.000000000000000E+000  0.000000000000000E+000
  0.000000000000000E+000  6.668901999676602E-003  0.000000000000000E+000
  0.000000000000000E+000  0.000000000000000E+000  3.611854108983654E-003
 dShat/dC
 -6.092625463123135E-004  0.000000000000000E+000  0.000000000000000E+000
  0.000000000000000E+000  2.833320879132020E-004  0.000000000000000E+000
  0.000000000000000E+000  0.000000000000000E+000  2.870234546245528E-004
  0.000000000000000E+000 -4.474822864811090E-004  0.000000000000000E+000
 -4.474822864811090E-004  0.000000000000000E+000  0.000000000000000E+000
  0.000000000000000E+000  0.000000000000000E+000  0.000000000000000E+000
  0.000000000000000E+000  0.000000000000000E+000 -4.474822864811090E-004
  0.000000000000000E+000  0.000000000000000E+000  0.000000000000000E+000
 -4.474822864811090E-004  0.000000000000000E+000  0.000000000000000E+000
  0.000000000000000E+000 -4.474822864811090E-004  0.000000000000000E+000
 -4.474822864811090E-004  0.000000000000000E+000  0.000000000000000E+000
  0.000000000000000E+000  0.000000000000000E+000  0.000000000000000E+000
  6.743832940818023E-004  0.000000000000000E+000  0.000000000000000E+000
  0.000000000000000E+000 -1.608868383623429E-004  0.000000000000000E+000
  0.000000000000000E+000  0.000000000000000E+000  6.207501240490815E-004
  0.000000000000000E+000  0.000000000000000E+000  0.000000000000000E+000
  0.000000000000000E+000  0.000000000000000E+000 -4.474822864811090E-004
  0.000000000000000E+000 -4.474822864811090E-004  0.000000000000000E+000
  0.000000000000000E+000  0.000000000000000E+000 -4.474822864811090E-004
  0.000000000000000E+000  0.000000000000000E+000  0.000000000000000E+000
 -4.474822864811090E-004  0.000000000000000E+000  0.000000000000000E+000
  0.000000000000000E+000  0.000000000000000E+000  0.000000000000000E+000
  0.000000000000000E+000  0.000000000000000E+000 -4.474822864811090E-004
  0.000000000000000E+000 -4.474822864811090E-004  0.000000000000000E+000
 -6.512102187741526E-005  0.000000000000000E+000  0.000000000000000E+000
  0.000000000000000E+000 -1.224455586214868E-004  0.000000000000000E+000
  0.000000000000000E+000  0.000000000000000E+000 -9.077738212973922E-004
 CCvol
  0.200000000000000       0.000000000000000E+000  0.000000000000000E+000
  0.000000000000000E+000  0.200000000000000       0.000000000000000E+000
  0.000000000000000E+000  0.000000000000000E+000  0.200000000000000     
  0.000000000000000E+000  0.000000000000000E+000  0.000000000000000E+000
  0.000000000000000E+000  0.000000000000000E+000  0.000000000000000E+000
  0.000000000000000E+000  0.000000000000000E+000  0.000000000000000E+000
  0.000000000000000E+000  0.000000000000000E+000  0.000000000000000E+000
  0.000000000000000E+000  0.000000000000000E+000  0.000000000000000E+000
  0.000000000000000E+000  0.000000000000000E+000  0.000000000000000E+000
  0.000000000000000E+000  0.000000000000000E+000  0.000000000000000E+000
  0.000000000000000E+000  0.000000000000000E+000  0.000000000000000E+000
  0.000000000000000E+000  0.000000000000000E+000  0.000000000000000E+000
  0.200000000000000       0.000000000000000E+000  0.000000000000000E+000
  0.000000000000000E+000  0.200000000000000       0.000000000000000E+000
  0.000000000000000E+000  0.000000000000000E+000  0.200000000000000     
  0.000000000000000E+000  0.000000000000000E+000  0.000000000000000E+000
  0.000000000000000E+000  0.000000000000000E+000  0.000000000000000E+000
  0.000000000000000E+000  0.000000000000000E+000  0.000000000000000E+000
  0.000000000000000E+000  0.000000000000000E+000  0.000000000000000E+000
  0.000000000000000E+000  0.000000000000000E+000  0.000000000000000E+000
  0.000000000000000E+000  0.000000000000000E+000  0.000000000000000E+000
  0.000000000000000E+000  0.000000000000000E+000  0.000000000000000E+000
  0.000000000000000E+000  0.000000000000000E+000  0.000000000000000E+000
  0.000000000000000E+000  0.000000000000000E+000  0.000000000000000E+000
  0.200000000000000       0.000000000000000E+000  0.000000000000000E+000
  0.000000000000000E+000  0.200000000000000       0.000000000000000E+000
  0.000000000000000E+000  0.000000000000000E+000  0.200000000000000     
 CCiso
  2.930841504825026E-003  0.000000000000000E+000  0.000000000000000E+000
  0.000000000000000E+000 -1.764499419532586E-003  0.000000000000000E+000
  0.000000000000000E+000  0.000000000000000E+000 -1.137723039199551E-003
  0.000000000000000E+000  2.183297396640736E-003  0.000000000000000E+000
  2.183297396640736E-003  0.000000000000000E+000  0.000000000000000E+000
  0.000000000000000E+000  0.000000000000000E+000  0.000000000000000E+000
  0.000000000000000E+000  0.000000000000000E+000  2.183297396640736E-003
  0.000000000000000E+000  0.000000000000000E+000  0.000000000000000E+000
  2.183297396640736E-003  0.000000000000000E+000  0.000000000000000E+000
  0.000000000000000E+000  2.183297396640736E-003  0.000000000000000E+000
  2.183297396640736E-003  0.000000000000000E+000  0.000000000000000E+000
  0.000000000000000E+000  0.000000000000000E+000  0.000000000000000E+000
 -1.764499419532586E-003  0.000000000000000E+000  0.000000000000000E+000
  0.000000000000000E+000  2.397478001182296E-003  0.000000000000000E+000
  0.000000000000000E+000  0.000000000000000E+000 -1.576378366290431E-003
  0.000000000000000E+000  0.000000000000000E+000  0.000000000000000E+000
  0.000000000000000E+000  0.000000000000000E+000  2.183297396640736E-003
  0.000000000000000E+000  2.183297396640736E-003  0.000000000000000E+000
  0.000000000000000E+000  0.000000000000000E+000  2.183297396640736E-003
  0.000000000000000E+000  0.000000000000000E+000  0.000000000000000E+000
  2.183297396640736E-003  0.000000000000000E+000  0.000000000000000E+000
  0.000000000000000E+000  0.000000000000000E+000  0.000000000000000E+000
  0.000000000000000E+000  0.000000000000000E+000  2.183297396640736E-003
  0.000000000000000E+000  2.183297396640736E-003  0.000000000000000E+000
 -1.137723039199552E-003  0.000000000000000E+000  0.000000000000000E+000
  0.000000000000000E+000 -1.576378366290431E-003  0.000000000000000E+000
  0.000000000000000E+000  0.000000000000000E+000  3.628882694473997E-003
 CC_ref
  0.202930841504825       0.000000000000000E+000  0.000000000000000E+000
  0.000000000000000E+000  0.198235500580467       0.000000000000000E+000
  0.000000000000000E+000  0.000000000000000E+000  0.198862276960800     
  0.000000000000000E+000  2.183297396640736E-003  0.000000000000000E+000
  2.183297396640736E-003  0.000000000000000E+000  0.000000000000000E+000
  0.000000000000000E+000  0.000000000000000E+000  0.000000000000000E+000
  0.000000000000000E+000  0.000000000000000E+000  2.183297396640736E-003
  0.000000000000000E+000  0.000000000000000E+000  0.000000000000000E+000
  2.183297396640736E-003  0.000000000000000E+000  0.000000000000000E+000
  0.000000000000000E+000  2.183297396640736E-003  0.000000000000000E+000
  2.183297396640736E-003  0.000000000000000E+000  0.000000000000000E+000
  0.000000000000000E+000  0.000000000000000E+000  0.000000000000000E+000
  0.198235500580467       0.000000000000000E+000  0.000000000000000E+000
  0.000000000000000E+000  0.202397478001182       0.000000000000000E+000
  0.000000000000000E+000  0.000000000000000E+000  0.198423621633710     
  0.000000000000000E+000  0.000000000000000E+000  0.000000000000000E+000
  0.000000000000000E+000  0.000000000000000E+000  2.183297396640736E-003
  0.000000000000000E+000  2.183297396640736E-003  0.000000000000000E+000
  0.000000000000000E+000  0.000000000000000E+000  2.183297396640736E-003
  0.000000000000000E+000  0.000000000000000E+000  0.000000000000000E+000
  2.183297396640736E-003  0.000000000000000E+000  0.000000000000000E+000
  0.000000000000000E+000  0.000000000000000E+000  0.000000000000000E+000
  0.000000000000000E+000  0.000000000000000E+000  2.183297396640736E-003
  0.000000000000000E+000  2.183297396640736E-003  0.000000000000000E+000
  0.198862276960800       0.000000000000000E+000  0.000000000000000E+000
  0.000000000000000E+000  0.198423621633710       0.000000000000000E+000
  0.000000000000000E+000  0.000000000000000E+000  0.203628882694474     
 DDSDDE
  0.202902222461904       0.198235500580467       0.198862276960800     
  0.000000000000000E+000  0.000000000000000E+000  0.000000000000000E+000
  0.198235500580467       0.203340877690101       0.198423621633710     
  0.000000000000000E+000  0.000000000000000E+000  0.000000000000000E+000
  0.198862276960800       0.198423621633710       0.202714101498040     
  0.000000000000000E+000  0.000000000000000E+000  0.000000000000000E+000
  0.000000000000000E+000  0.000000000000000E+000  0.000000000000000E+000
  2.411992558140216E-003  0.000000000000000E+000  0.000000000000000E+000
  0.000000000000000E+000  0.000000000000000E+000  0.000000000000000E+000
  0.000000000000000E+000  1.947447336801993E-003  0.000000000000000E+000
  0.000000000000000E+000  0.000000000000000E+000  0.000000000000000E+000
  0.000000000000000E+000  0.000000000000000E+000  2.190452019761941E-003

  NUMBER OF EQUATIONS =      3678     NUMBER OF RHS =    1
  NUMBER OF FLOATING PT. OPERATIONS =  1.39E+08

     CHECK POINT   START OF SOLVER    

     CHECK POINT  END OF SOLVER       

       ELAPSED USER TIME (SEC)      =  9.00000E-02
       ELAPSED SYSTEM TIME (SEC)    =  2.00000E-02
       ELAPSED TOTAL CPU TIME (SEC) =  0.11000    
       ELAPSED WALLCLOCK TIME (SEC) =          0
 ***************************************************
 deformation gradient
   1.05336602822162       0.279483854371868      -7.268655891723690E-002
 -8.241447869655129E-002  0.898628780490725      -1.538435602781895E-003
  1.825420630740451E-002 -4.446533941258427E-003   1.04247989136415     
 J
   1.01195847738888     
 C
   1.19297455011317       0.164451446718579      -5.778864969180482E-002
  0.164451446718579       0.814328198209175      -7.103982449946532E-003
 -5.778864969180482E-002 -7.103982449946532E-003   1.08711731161062     
 Chat
   1.18355755912745       0.163153315261215      -5.733248305088791E-002
  0.163153315261215       0.807900130400668      -7.047905697355714E-003
 -5.733248305088791E-002 -7.047905697355714E-003   1.07853592659878     
 I1hat, I2hat, I4ahat, I4shat
   3.06999361612689        3.07409927994500        1.18355755912745     
  0.807900130400668     
 S^hat
  2.984352000168757E-003 -1.470996835407715E-004  5.169119671206033E-005
 -1.470996835407715E-004  3.812592086198883E-003  6.354420049916586E-006
  5.169119671206033E-005  6.354420049916586E-006  2.632650177057074E-003
 S_iso
  2.529244207672552E-004  3.996841022975482E-004 -8.909548435489999E-005
  3.996841022975482E-004 -1.744894560022064E-004  9.450595051795501E-006
 -8.909548435489999E-005  9.450595051795501E-006 -2.771194875422162E-004
 S
  2.345081634500634E-003 -2.187539546208683E-005  1.936400551951007E-005
 -2.187539546208683E-005  2.882761072204879E-003  7.019670610994785E-006
  1.936400551951007E-005  7.019670610994785E-006  1.954973540849949E-003
 sigma
  2.595767467784276E-003  4.512595647839873E-004 -1.200100962705334E-004
  4.512595647839871E-004  2.470506689789284E-003 -4.646902777106276E-005
 -1.200100962705334E-004 -4.646902777106276E-005  2.108811998992327E-003
 Psi24a
  5.209384846658711E-005
 CChat
  4.606080493984486E-003 -2.271618642644589E-004  7.982524726450479E-005
 -2.271618642644589E-004  7.657628906259898E-003  9.812950443624977E-006
  7.982524726450479E-005  9.812950443624977E-006  5.847010590205265E-003
 -2.271618642644589E-004 -8.762209670298036E-004 -3.937545531599757E-006
 -8.762209670298036E-004 -2.901788222039458E-004 -4.840440899991627E-007
 -3.937545531599757E-006 -4.840440899991627E-007 -2.008941306156113E-004
  7.982524726450479E-005 -3.937545531599757E-006 -8.860425327819443E-004
 -3.937545531599757E-006  1.019695638982166E-004  1.700943038842224E-007
 -8.860425327819443E-004  1.700943038842224E-007  7.059469996121136E-005
 -2.271618642644589E-004 -8.762209670298036E-004 -3.937545531599757E-006
 -8.762209670298036E-004 -2.901788222039458E-004 -4.840440899991627E-007
 -3.937545531599757E-006 -4.840440899991627E-007 -2.008941306156113E-004
  7.657628906259898E-003 -2.901788222039458E-004  1.019695638982166E-004
 -2.901788222039458E-004  7.514715540001283E-003  1.253516038573159E-005
  1.019695638982166E-004  1.253516038573159E-005  6.977008652642259E-003
  9.812950443624977E-006 -4.840440899991627E-007  1.700943038842224E-007
 -4.840440899991627E-007  1.253516038573159E-005 -8.874052863674101E-004
  1.700943038842224E-007 -8.874052863674101E-004  8.678235471122388E-006
  7.982524726450479E-005 -3.937545531599757E-006 -8.860425327819443E-004
 -3.937545531599757E-006  1.019695638982166E-004  1.700943038842224E-007
 -8.860425327819443E-004  1.700943038842224E-007  7.059469996121136E-005
  9.812950443624977E-006 -4.840440899991627E-007  1.700943038842224E-007
 -4.840440899991627E-007  1.253516038573159E-005 -8.874052863674101E-004
  1.700943038842224E-007 -8.874052863674101E-004  8.678235471122388E-006
  5.847010590205265E-003 -2.008941306156113E-004  7.059469996121136E-005
 -2.008941306156113E-004  6.977008652642259E-003  8.678235471122388E-006
  7.059469996121136E-005  8.678235471122388E-006  3.601996685174804E-003
 dShat/dC
 -2.929799398513099E-004  3.268139546625524E-005 -1.148432410734998E-005
  3.268139546625524E-005  5.581819317593598E-004 -1.411772681023239E-006
 -1.148432410734998E-005 -1.411772681023239E-006  5.509323640777922E-004
  4.122930256428847E-004 -4.712495552957403E-004  8.435785394750449E-006
 -4.712495552957403E-004  5.189110707968373E-004  1.037014564545553E-006
  8.435785394750449E-006  1.037014564545553E-006  3.815025862504793E-004
 -9.529999654636385E-005  5.644794859601401E-006 -4.492271020852201E-004
  5.644794859601401E-006 -1.197416514665478E-004 -2.438441522790585E-007
 -4.492271020852201E-004 -2.438441522790585E-007 -8.862419130385065E-005
  4.122930256428847E-004 -4.712495552957403E-004  8.435785394750449E-006
 -4.712495552957403E-004  5.189110707968373E-004  1.037014564545553E-006
  8.435785394750449E-006  1.037014564545553E-006  3.815025862504793E-004
  3.896055950451650E-005  6.880858816512852E-005 -2.417950998063819E-005
  6.880858816512852E-005 -1.036609451613843E-003 -2.972397096433974E-006
 -2.417950998063819E-005 -2.972397096433974E-006  1.525020585774293E-005
  7.983179061330677E-006 -4.149432177061188E-007  1.458120845299934E-007
 -4.149432177061188E-007  1.015306645503063E-005 -4.472255823137145E-004
  1.458120845299934E-007 -4.472255823137145E-004  7.157415111344628E-006
 -9.529999654636385E-005  5.644794859601401E-006 -4.492271020852201E-004
  5.644794859601401E-006 -1.197416514665478E-004 -2.438441522790585E-007
 -4.492271020852201E-004 -2.438441522790585E-007 -8.862419130385065E-005
  7.983179061330677E-006 -4.149432177061188E-007  1.458120845299934E-007
 -4.149432177061188E-007  1.015306645503063E-005 -4.472255823137145E-004
  1.458120845299934E-007 -4.472255823137145E-004  7.157415111344628E-006
  1.575590756409003E-004  5.576309457422133E-005 -1.959529090428239E-005
  5.576309457422133E-005 -5.632683997381510E-006 -2.408857161882433E-006
 -1.959529090428239E-005 -2.408857161882433E-006 -7.407533279957267E-004
 CCvol
  0.151232165323610      -3.047254539019922E-002  7.840024351865701E-003
 -3.047254539019922E-002  0.226132860237014      -1.421404834984635E-004
  7.840024351865701E-003 -1.421404834984635E-004  0.165196683891323     
 -3.047254539019922E-002  3.570741307751657E-003 -1.596516538419295E-003
  3.570741307751657E-003 -4.452925663447459E-002 -1.011728337798284E-004
 -1.596516538419295E-003 -1.011728337798284E-004 -3.328806872548020E-002
  7.840024351865701E-003 -1.596516538419295E-003 -1.518175086286658E-003
 -1.596516538419295E-003  1.172971624148831E-002  3.795603811191339E-004
 -1.518175086286658E-003  3.795603811191339E-004  8.364411423459289E-003
 -3.047254539019922E-002  3.570741307751657E-003 -1.596516538419295E-003
  3.570741307751657E-003 -4.452925663447459E-002 -1.011728337798284E-004
 -1.596516538419295E-003 -1.011728337798284E-004 -3.328806872548020E-002
  0.226132860237014      -4.452925663447459E-002  1.172971624148831E-002
 -4.452925663447459E-002  0.322936843055162      -2.567781270703387E-004
  1.172971624148831E-002 -2.567781270703387E-004  0.241414628929124     
 -1.421404834984635E-004 -1.011728337798284E-004  3.795603811191339E-004
 -1.011728337798284E-004 -2.567781270703387E-004 -2.819310560351682E-003
  3.795603811191339E-004 -2.819310560351682E-003 -1.874732417213528E-004
  7.840024351865701E-003 -1.596516538419295E-003 -1.518175086286658E-003
 -1.596516538419295E-003  1.172971624148831E-002  3.795603811191339E-004
 -1.518175086286658E-003  3.795603811191339E-004  8.364411423459289E-003
 -1.421404834984635E-004 -1.011728337798284E-004  3.795603811191339E-004
 -1.011728337798284E-004 -2.567781270703387E-004 -2.819310560351682E-003
  3.795603811191339E-004 -2.819310560351682E-003 -1.874732417213528E-004
  0.165196683891323      -3.328806872548021E-002  8.364411423459289E-003
 -3.328806872548021E-002  0.241414628929124      -1.874732417213528E-004
  8.364411423459289E-003 -1.874732417213528E-004  0.172139334663350     
 CCiso
  1.824614572888699E-003 -6.796396926443941E-004  1.608395992429414E-004
 -6.796396926443941E-004 -1.683918253497775E-003 -5.447731602842144E-005
  1.608395992429414E-004 -5.447731602842144E-005 -9.842127087738447E-004
 -6.796396926443944E-004  2.729455490282614E-003 -5.114032738145533E-005
  2.729455490282614E-003 -1.222148141434945E-003  1.809028380132936E-004
 -5.114032738145533E-005  1.809028380132936E-004  9.712663338700309E-005
  1.608395992429413E-004 -5.114032738145533E-005  1.609560412961335E-003
 -5.114032738145533E-005 -6.192827969712937E-005 -5.019561393725627E-004
  1.609560412961335E-003 -5.019561393725627E-004  2.138319890786008E-004
 -6.796396926443944E-004  2.729455490282614E-003 -5.114032738145533E-005
  2.729455490282614E-003 -1.222148141434945E-003  1.809028380132936E-004
 -5.114032738145533E-005  1.809028380132936E-004  9.712663338700309E-005
 -1.683918253497776E-003 -1.222148141434944E-003 -6.192827969712925E-005
 -1.222148141434944E-003  5.502594873091207E-003 -1.975029080025352E-005
 -6.192827969712925E-005 -1.975029080025352E-005 -1.590019417226628E-003
 -5.447731602842144E-005  1.809028380132936E-004 -5.019561393725627E-004
  1.809028380132936E-004 -1.975029080025353E-005  2.745399425826562E-003
 -5.019561393725627E-004  2.745399425826562E-003 -1.502651576168538E-005
  1.608395992429413E-004 -5.114032738145533E-005  1.609560412961335E-003
 -5.114032738145533E-005 -6.192827969712937E-005 -5.019561393725627E-004
  1.609560412961335E-003 -5.019561393725627E-004  2.138319890786008E-004
 -5.447731602842144E-005  1.809028380132936E-004 -5.019561393725627E-004
  1.809028380132936E-004 -1.975029080025353E-005  2.745399425826562E-003
 -5.019561393725627E-004  2.745399425826562E-003 -1.502651576168538E-005
 -9.842127087738447E-004  9.712663338700309E-005  2.138319890786007E-004
  9.712663338700309E-005 -1.590019417226628E-003 -1.502651576168538E-005
  2.138319890786007E-004 -1.502651576168538E-005  2.774063804524365E-003
 CC_ref
  0.153056779896499      -3.115218508284362E-002  8.000863951108642E-003
 -3.115218508284362E-002  0.224448941983516      -1.966177995268849E-004
  8.000863951108642E-003 -1.966177995268849E-004  0.164212471182549     
 -3.115218508284362E-002  6.300196798034272E-003 -1.647656865800750E-003
  6.300196798034272E-003 -4.575140477590953E-002  7.973000423346522E-005
 -1.647656865800750E-003  7.973000423346522E-005 -3.319094209209320E-002
  8.000863951108642E-003 -1.647656865800750E-003  9.138532667467714E-005
 -1.647656865800750E-003  1.166778796179118E-002 -1.223957582534288E-004
  9.138532667467714E-005 -1.223957582534288E-004  8.578243412537890E-003
 -3.115218508284362E-002  6.300196798034272E-003 -1.647656865800750E-003
  6.300196798034272E-003 -4.575140477590953E-002  7.973000423346522E-005
 -1.647656865800750E-003  7.973000423346522E-005 -3.319094209209320E-002
  0.224448941983516      -4.575140477590953E-002  1.166778796179118E-002
 -4.575140477590953E-002  0.328439437928253      -2.765284178705922E-004
  1.166778796179118E-002 -2.765284178705922E-004  0.239824609511898     
 -1.966177995268849E-004  7.973000423346522E-005 -1.223957582534288E-004
  7.973000423346522E-005 -2.765284178705922E-004 -7.391113452512007E-005
 -1.223957582534288E-004 -7.391113452512007E-005 -2.024997574830382E-004
  8.000863951108642E-003 -1.647656865800750E-003  9.138532667467714E-005
 -1.647656865800750E-003  1.166778796179118E-002 -1.223957582534288E-004
  9.138532667467714E-005 -1.223957582534288E-004  8.578243412537890E-003
 -1.966177995268849E-004  7.973000423346522E-005 -1.223957582534288E-004
  7.973000423346522E-005 -2.765284178705922E-004 -7.391113452512007E-005
 -1.223957582534288E-004 -7.391113452512007E-005 -2.024997574830382E-004
  0.164212471182549      -3.319094209209320E-002  8.578243412537890E-003
 -3.319094209209320E-002  0.239824609511898      -2.024997574830382E-004
  8.578243412537890E-003 -2.024997574830382E-004  0.174913398467874     
 DDSDDE
  0.207746008378272       0.203039639878798       0.203564524564625     
  5.932089483086747E-005 -2.659686024627145E-005  6.379771726040269E-006
  0.203039639878798       0.207935363871344       0.203375169110588     
  2.893908349094117E-005  2.248331777599199E-005 -7.572778308129542E-006
  0.203564524564625       0.203375169110588       0.207410479244851     
 -8.826008414912858E-005  4.113569625352454E-006  1.193017071207106E-006
  5.932089483088731E-005  2.893908349094925E-005 -8.826008414913498E-005
  2.506497593317042E-003 -3.730362366919251E-005 -3.165514422022267E-005
 -2.659686024626757E-005  2.248331777599133E-005  4.113569625353755E-006
 -3.730362366919289E-005  1.983237107292932E-003  1.898564230421167E-005
  6.379771726039705E-006 -7.572778308129014E-006  1.193017071206787E-006
 -3.165514422022262E-005  1.898564230421154E-005  2.133089637113173E-003

               CONVERGENCE CHECKS FOR EQUILIBRIUM ITERATION     1


 AVERAGE FORCE                      3.073E-03   TIME AVG. FORCE       3.073E-03
 LARGEST RESIDUAL FORCE            -5.711E-02   AT NODE          1   DOF  1
   INSTANCE:                                                                                 
 LARGEST INCREMENT OF DISP.          2.37       AT NODE        648   DOF  2
   INSTANCE: PART-1-1                                                                        
 LARGEST CORRECTION TO DISP.         2.37       AT NODE        648   DOF  2
   INSTANCE: PART-1-1                                                                        
          FORCE     EQUILIBRIUM NOT ACHIEVED WITHIN TOLERANCE.

 AVERAGE MOMENT                      0.00       TIME AVG. MOMENT      3.072E-02
                                                (FROM FORCE     FIELD)
 LARGEST RESIDUAL MOMENT           -6.277E-08   AT NODE          1   DOF  6
   INSTANCE:                                                                                 
 LARGEST INCREMENT OF ROTATION      1.000E-02   AT NODE          1   DOF  4
   INSTANCE: {assembly node}                                                                 
 LARGEST CORRECTION TO ROTATION     1.000E-02   AT NODE          1   DOF  4
   INSTANCE: {assembly node}                                                                 
          THERE IS ZERO MOMENT    EVERYWHERE

  NUMBER OF EQUATIONS =      3678     NUMBER OF RHS =    1
  NUMBER OF FLOATING PT. OPERATIONS =  1.39E+08

     CHECK POINT   START OF SOLVER    

     CHECK POINT  END OF SOLVER       

       ELAPSED USER TIME (SEC)      =  5.00000E-02
       ELAPSED SYSTEM TIME (SEC)    =   0.0000    
       ELAPSED TOTAL CPU TIME (SEC) =  5.00000E-02
       ELAPSED WALLCLOCK TIME (SEC) =          0
 

 ***WARNING: THE SYSTEM MATRIX HAS 14 NEGATIVE EIGENVALUES.

     NEGATIVE EIGENVALUES MEAN THAT THE SYSTEM MATRIX IS NOT 
     POSITIVE DEFINITE:
     FOR EXAMPLE, A BIFURCATION (BUCKLING) LOAD MAY HAVE BEEN EXCEEDED.
 ***************************************************
 deformation gradient
   1.04623499106255       0.301542368942778      -7.836114953809264E-002
 -6.771021666052525E-002  0.892170813049987       2.234106954954529E-003
  1.759950538158828E-002 -5.639074287121910E-003   1.04917993050263     
 J
   1.00197302498315     
 C
   1.19167592654821       0.198011435356848      -6.550214689005407E-002
  0.198011435356848       0.800558424332377      -3.878703634361615E-003
 -6.550214689005407E-002 -3.878703634361615E-003   1.10112006831800     
 Chat
   1.19011102828931       0.197751408495913      -6.541613005163455E-002
  0.197751408495913       0.799507138108938      -3.873610155145520E-003
 -6.541613005163455E-002 -3.873610155145520E-003   1.09967408720907     
 I1hat, I2hat, I4ahat, I4shat
   3.08929225360732        3.09603390879937        1.19011102828931     
  0.799507138108938     
 S^hat
  3.020613284433826E-003 -1.797691775211037E-004  5.946761130775423E-005
 -1.797691775211037E-004  3.869292617567087E-003  3.521369162042130E-006
  5.946761130775423E-005  3.521369162042130E-006  2.652803303048721E-003
 S_iso
  2.284096018534921E-004  5.093221707350988E-004 -1.040473775796694E-004
  5.093221707350988E-004 -2.727346286747797E-004  2.992214103869424E-005
 -1.040473775796694E-004  2.992214103869424E-005 -2.442533508766381E-004
 S
  5.755673386206419E-004  4.235541978257344E-004 -8.369818118936787E-005
  4.235541978257344E-004  2.423481399163256E-004  2.663445874354737E-005
 -8.369818118936787E-005  2.663445874354737E-005  1.160195545637781E-004
 sigma
  5.668933250612555E-004  5.530238887598430E-004 -1.352278218619110E-004
  5.530238887598430E-004  4.722205388679490E-004 -4.462747473019426E-005
 -1.352278218619111E-004 -4.462747473019428E-005  1.447008425991481E-004
 Psi24a
  5.316084132915379E-005
 CChat
  4.803041316899599E-003 -2.860182553367287E-004  9.461478697197611E-005
 -2.860182553367287E-004  7.964352612659639E-003  5.602605952878728E-006
  9.461478697197611E-005  5.602605952878728E-006  6.041120610810449E-003
 -2.860182553367287E-004 -8.896450981404963E-004 -5.635306200980312E-006
 -8.896450981404963E-004 -3.663544014529701E-004 -3.336941410358838E-007
 -5.635306200980312E-006 -3.336941410358838E-007 -2.518410428181725E-004
  9.461478697197611E-005 -5.635306200980312E-006 -9.048163367633622E-004
 -5.635306200980312E-006  1.211899695315267E-004  1.103859613112337E-007
 -9.048163367633622E-004  1.103859613112337E-007  8.330897127174342E-005
 -2.860182553367287E-004 -8.896450981404963E-004 -5.635306200980312E-006
 -8.896450981404963E-004 -3.663544014529701E-004 -3.336941410358838E-007
 -5.635306200980312E-006 -3.336941410358838E-007 -2.518410428181725E-004
  7.964352612659639E-003 -3.663544014529701E-004  1.211899695315267E-004
 -3.663544014529701E-004  7.878663873769030E-003  7.176252956397078E-006
  1.211899695315267E-004  7.176252956397078E-006  7.228963598675835E-003
  5.602605952878728E-006 -3.336941410358838E-007  1.103859613112337E-007
 -3.336941410358838E-007  7.176252956397078E-006 -9.066739585376125E-004
  1.103859613112337E-007 -9.066739585376125E-004  4.933133110721035E-006
  9.461478697197611E-005 -5.635306200980312E-006 -9.048163367633622E-004
 -5.635306200980312E-006  1.211899695315267E-004  1.103859613112337E-007
 -9.048163367633622E-004  1.103859613112337E-007  8.330897127174342E-005
  5.602605952878728E-006 -3.336941410358838E-007  1.103859613112337E-007
 -3.336941410358838E-007  7.176252956397078E-006 -9.066739585376125E-004
  1.103859613112337E-007 -9.066739585376125E-004  4.933133110721035E-006
  6.041120610810449E-003 -2.518410428181725E-004  8.330897127174342E-005
 -2.518410428181725E-004  7.228963598675835E-003  4.933133110721035E-006
  8.330897127174342E-005  4.933133110721035E-006  3.723321946077950E-003
 dShat/dC
 -3.245802431364837E-004  4.187295358182408E-005 -1.385156544769322E-005
  4.187295358182408E-005  5.297060416444752E-004 -8.202191805063307E-007
 -1.385156544769322E-005 -8.202191805063307E-007  5.371197290725943E-004
  5.310870552424017E-004 -4.911304438147985E-004  1.230379858954441E-005
 -4.911304438147985E-004  6.708347613606231E-004  7.285683076284863E-007
  1.230379858954441E-005  7.285683076284863E-007  4.884481446462265E-004
 -1.126101898607496E-004  8.026818268731882E-006 -4.565916227359106E-004
  8.026818268731882E-006 -1.420042389677962E-004 -1.572315716775790E-007
 -4.565916227359106E-004 -1.572315716775790E-007 -1.040943275371812E-004
  5.310870552424017E-004 -4.911304438147985E-004  1.230379858954441E-005
 -4.911304438147985E-004  6.708347613606231E-004  7.285683076284863E-007
  1.230379858954441E-005  7.285683076284863E-007  4.884481446462265E-004
 -6.202660593150849E-005  9.117306030156940E-005 -3.016003180587327E-005
  9.117306030156940E-005 -1.185735450753216E-003 -1.785923523609960E-006
 -3.016003180587327E-005 -1.785923523609960E-006 -7.137381991376363E-005
  2.865184098657272E-005 -1.919733084093591E-006  6.350473559134580E-007
 -1.919733084093591E-006  3.633830646272618E-005 -4.538987484378804E-004
  6.350473559134580E-007 -4.538987484378804E-004  2.602631094545376E-005
 -1.126101898607496E-004  8.026818268731882E-006 -4.565916227359106E-004
  8.026818268731882E-006 -1.420042389677962E-004 -1.572315716775790E-007
 -4.565916227359106E-004 -1.572315716775790E-007 -1.040943275371812E-004
  2.865184098657272E-005 -1.919733084093591E-006  6.350473559134580E-007
 -1.919733084093591E-006  3.633830646272618E-005 -4.538987484378804E-004
  6.350473559134580E-007 -4.538987484378804E-004  2.602631094545376E-005
  1.921655389401969E-004  6.597573910740059E-005 -2.182476252649103E-005
  6.597573910740059E-005  3.090038323748726E-005 -1.292351315944937E-006
 -2.182476252649103E-005 -1.292351315944937E-006 -7.172746711472146E-004
 CCvol
  0.154490757466354      -3.816812272286742E-002  9.055718571750901E-003
 -3.816812272286742E-002  0.230087392054661      -1.460016235816520E-003
  9.055718571750901E-003 -1.460016235816520E-003  0.160957782338493     
 -3.816812272286742E-002  8.996074641333441E-003 -2.238812046601084E-003
  8.996074641333441E-003 -5.663057521660844E-002  3.356663776425915E-004
 -2.238812046601084E-003  3.356663776425915E-004 -3.976602973685510E-002
  9.055718571750899E-003 -2.238812046601084E-003  2.155328830355355E-004
 -2.238812046601084E-003  1.348768890997646E-002 -7.777784529111384E-006
  2.155328830355355E-004 -7.777784529111384E-006  9.397831864780591E-003
 -3.816812272286742E-002  8.996074641333441E-003 -2.238812046601084E-003
  8.996074641333441E-003 -5.663057521660844E-002  3.356663776425915E-004
 -2.238812046601084E-003  3.356663776425915E-004 -3.976602973685510E-002
  0.230087392054661      -5.663057521660844E-002  1.348768890997646E-002
 -5.663057521660844E-002  0.340097037157476      -2.170779291943589E-003
  1.348768890997646E-002 -2.170779291943589E-003  0.238818356314437     
 -1.460016235816520E-003  3.356663776425915E-004 -7.777784529111384E-006
  3.356663776425915E-004 -2.170779291943589E-003 -4.554596035215760E-004
 -7.777784529111384E-006 -4.554596035215760E-004 -1.518344255074953E-003
  9.055718571750899E-003 -2.238812046601084E-003  2.155328830355355E-004
 -2.238812046601084E-003  1.348768890997646E-002 -7.777784529111384E-006
  2.155328830355355E-004 -7.777784529111384E-006  9.397831864780591E-003
 -1.460016235816520E-003  3.356663776425915E-004 -7.777784529111384E-006
  3.356663776425915E-004 -2.170779291943589E-003 -4.554596035215760E-004
 -7.777784529111384E-006 -4.554596035215760E-004 -1.518344255074953E-003
  0.160957782338493      -3.976602973685511E-002  9.397831864780591E-003
 -3.976602973685511E-002  0.238818356314437      -1.518344255074953E-003
  9.397831864780591E-003 -1.518344255074953E-003  0.166384171926254     
 CCiso
  1.971395762625414E-003 -8.947461888442213E-004  1.946326622198350E-004
 -8.947461888442213E-004 -1.665458734727108E-003 -6.977498120380252E-005
  1.946326622198350E-004 -6.977498120380252E-005 -9.930712763663546E-004
 -8.947461888442215E-004  3.068167603978445E-003 -9.476089342278591E-005
  3.068167603978445E-003 -1.649983850368795E-003  2.318783279937498E-004
 -9.476089342278591E-005  2.318783279937498E-004  1.297148746107159E-004
  1.946326622198349E-004 -9.476089342278591E-005  1.649787322125599E-003
 -9.476089342278591E-005 -5.467412310463115E-005 -6.319414951873320E-004
  1.649787322125599E-003 -6.319414951873320E-004  2.440061126777833E-004
 -8.947461888442215E-004  3.068167603978445E-003 -9.476089342278591E-005
  3.068167603978445E-003 -1.649983850368795E-003  2.318783279937498E-004
 -9.476089342278591E-005  2.318783279937498E-004  1.297148746107159E-004
 -1.665458734727108E-003 -1.649983850368793E-003 -5.467412310463100E-005
 -1.649983850368793E-003  6.214688947922060E-003 -8.282655051348734E-005
 -5.467412310463100E-005 -8.282655051348734E-005 -1.634189539548732E-003
 -6.977498120380247E-005  2.318783279937498E-004 -6.319414951873320E-004
  2.318783279937498E-004 -8.282655051348736E-005  2.865276528275854E-003
 -6.319414951873320E-004  2.865276528275854E-003 -5.701166164934095E-005
  1.946326622198349E-004 -9.476089342278591E-005  1.649787322125599E-003
 -9.476089342278591E-005 -5.467412310463115E-005 -6.319414951873320E-004
  1.649787322125599E-003 -6.319414951873320E-004  2.440061126777833E-004
 -6.977498120380247E-005  2.318783279937498E-004 -6.319414951873320E-004
  2.318783279937498E-004 -8.282655051348736E-005  2.865276528275854E-003
 -6.319414951873320E-004  2.865276528275854E-003 -5.701166164934095E-005
 -9.930712763663537E-004  1.297148746107157E-004  2.440061126777835E-004
  1.297148746107157E-004 -1.634189539548730E-003 -5.701166164934099E-005
  2.440061126777835E-004 -5.701166164934099E-005  2.688483932512811E-003
 CC_ref
  0.156462153228980      -3.906286891171164E-002  9.250351233970736E-003
 -3.906286891171164E-002  0.228421933319934      -1.529791217020323E-003
  9.250351233970736E-003 -1.529791217020323E-003  0.159964711062127     
 -3.906286891171164E-002  1.206424224531188E-002 -2.333572940023870E-003
  1.206424224531188E-002 -5.828055906697724E-002  5.675447056363414E-004
 -2.333572940023870E-003  5.675447056363414E-004 -3.963631486224439E-002
  9.250351233970734E-003 -2.333572940023870E-003  1.865320205161134E-003
 -2.333572940023870E-003  1.343301478687183E-002 -6.397192797164434E-004
  1.865320205161134E-003 -6.397192797164434E-004  9.641837977458375E-003
 -3.906286891171164E-002  1.206424224531188E-002 -2.333572940023870E-003
  1.206424224531188E-002 -5.828055906697724E-002  5.675447056363414E-004
 -2.333572940023870E-003  5.675447056363414E-004 -3.963631486224439E-002
  0.228421933319934      -5.828055906697722E-002  1.343301478687183E-002
 -5.828055906697722E-002  0.346311726105398      -2.253605842457076E-003
  1.343301478687183E-002 -2.253605842457076E-003  0.237184166774888     
 -1.529791217020323E-003  5.675447056363414E-004 -6.397192797164434E-004
  5.675447056363414E-004 -2.253605842457076E-003  2.409816924754278E-003
 -6.397192797164434E-004  2.409816924754278E-003 -1.575355916724294E-003
  9.250351233970734E-003 -2.333572940023870E-003  1.865320205161134E-003
 -2.333572940023870E-003  1.343301478687183E-002 -6.397192797164434E-004
  1.865320205161134E-003 -6.397192797164434E-004  9.641837977458375E-003
 -1.529791217020323E-003  5.675447056363414E-004 -6.397192797164434E-004
  5.675447056363414E-004 -2.253605842457076E-003  2.409816924754278E-003
 -6.397192797164434E-004  2.409816924754278E-003 -1.575355916724294E-003
  0.159964711062127      -3.963631486224439E-002  9.641837977458375E-003
 -3.963631486224439E-002  0.237184166774888      -1.575355916724294E-003
  9.641837977458375E-003 -1.575355916724294E-003  0.169072655858766     
 DDSDDE
  0.203834056037711       0.198989585205509       0.199543988697827     
  6.505151222236213E-005 -2.745281608408827E-005  8.761677597647852E-006
  0.198989585205509       0.204038025489330       0.199340019278627     
  3.701098375500267E-005  2.514687364654408E-005 -8.160309572445508E-006
  0.199543988697827       0.199340019278627       0.203483622048152     
 -1.020626269757300E-004  2.305973415588693E-006 -6.013579131859762E-007
  6.505151222235746E-005  3.701098375498608E-005 -1.020626269757213E-004
  2.633546582873058E-003 -4.909917843798749E-005 -3.592707752739258E-005
 -2.745281608409868E-005  2.514687364655297E-005  2.305973415589127E-006
 -4.909917843798638E-005  2.043666219422051E-003  2.589218815930998E-005
  8.761677597649283E-006 -8.160309572444363E-006 -6.013579131853054E-007
 -3.592707752739259E-005  2.589218815931014E-005  2.197675426247221E-003

               CONVERGENCE CHECKS FOR EQUILIBRIUM ITERATION     2


 AVERAGE FORCE                      2.960E-04   TIME AVG. FORCE       2.960E-04
 LARGEST RESIDUAL FORCE             1.910E-03   AT NODE          1   DOF  1
   INSTANCE:                                                                                 
 LARGEST INCREMENT OF DISP.          2.36       AT NODE        648   DOF  2
   INSTANCE: PART-1-1                                                                        
 LARGEST CORRECTION TO DISP.        0.120       AT NODE        217   DOF  1
   INSTANCE: PART-1-1                                                                        
          FORCE     EQUILIBRIUM NOT ACHIEVED WITHIN TOLERANCE.

 AVERAGE MOMENT                      0.00       TIME AVG. MOMENT      3.072E-02
                                                (FROM FORCE     FIELD)
 LARGEST RESIDUAL MOMENT            6.570E-09   AT NODE          1   DOF  6
   INSTANCE:                                                                                 
 LARGEST INCREMENT OF ROTATION      1.000E-02   AT NODE          1   DOF  4
   INSTANCE: {assembly node}                                                                 
 LARGEST CORRECTION TO ROTATION    -2.561E-10   AT NODE          1   DOF  5
   INSTANCE: {assembly node}                                                                 
          THERE IS ZERO MOMENT    EVERYWHERE

  NUMBER OF EQUATIONS =      3678     NUMBER OF RHS =    1
  NUMBER OF FLOATING PT. OPERATIONS =  1.39E+08

     CHECK POINT   START OF SOLVER    

     CHECK POINT  END OF SOLVER       

       ELAPSED USER TIME (SEC)      =  5.00000E-02
       ELAPSED SYSTEM TIME (SEC)    =  1.00000E-02
       ELAPSED TOTAL CPU TIME (SEC) =  6.00000E-02
       ELAPSED WALLCLOCK TIME (SEC) =          0
 ***************************************************
 deformation gradient
   1.05013655026752       0.300478334924950      -6.943323907458000E-002
 -7.333611824110563E-002  0.891738382480654      -1.149748671406429E-003
  1.823494210223257E-002 -4.757862095046145E-003   1.04444281814756     
 J
   1.00217343702516     
 C
   1.19789497865543       0.191014956911107      -5.479950317872342E-002
  0.191014956911107       0.800576850949893      -6.780894861356655E-003
 -5.479950317872342E-002 -6.780894861356655E-003   1.09121595074521     
 Chat
   1.19616241670458       0.190738684573143      -5.472024453266118E-002
  0.190738684573143       0.799418945611443      -6.771087390218665E-003
 -5.472024453266118E-002 -6.771087390218665E-003   1.08963768280845     
 I1hat, I2hat, I4ahat, I4shat
   3.08521904512447        3.09127415085292        1.19616241670458     
  0.799418945611443     
 S^hat
  3.007294641975194E-003 -1.731566664818043E-004  4.967621095610157E-005
 -1.731566664818043E-004  3.860382244070345E-003  6.146938276160944E-006
  4.967621095610157E-005  6.146938276160944E-006  2.654575316768512E-003
 S_iso
  2.474439240297276E-004  4.834096103288534E-004 -8.469507246997151E-005
  4.834096103288534E-004 -2.589740070431273E-004  1.353412780657264E-005
 -8.469507246997151E-005  1.353412780657264E-005 -2.592148718847257E-004
 S
  6.263443069447002E-004  3.931616637554971E-004 -6.622797538708946E-005
  3.931616637554971E-004  3.066980849875023E-004  1.251711586471214E-005
 -6.622797538708946E-005  1.251711586471214E-005  1.409233976568813E-004
 sigma
  6.279288219927667E-004  5.360916703748596E-004 -1.146976683159636E-004
  5.360916703748595E-004  5.101078600943080E-004 -4.760598145635236E-005
 -1.146976683159636E-004 -4.760598145635235E-005  1.660252503772384E-004
 Psi24a
  5.298391693901729E-005
 CChat
  4.755785529084173E-003 -2.739926234412878E-004  7.860462804598617E-005
 -2.739926234412878E-004  7.913721228891031E-003  9.726542896885723E-006
  7.860462804598617E-005  9.726542896885723E-006  6.017810229603209E-003
 -2.739926234412878E-004 -8.894089441194382E-004 -4.529457167895737E-006
 -8.894089441194382E-004 -3.516920184657895E-004 -5.604753885149139E-007
 -4.529457167895737E-006 -5.604753885149139E-007 -2.424772940024500E-004
  7.860462804598617E-005 -4.529457167895737E-006 -9.038978626136997E-004
 -4.529457167895737E-006  1.008954910940122E-004  1.607925019652395E-007
 -9.038978626136997E-004  1.607925019652395E-007  6.956332351313844E-005
 -2.739926234412878E-004 -8.894089441194382E-004 -4.529457167895737E-006
 -8.894089441194382E-004 -3.516920184657895E-004 -5.604753885149139E-007
 -4.529457167895737E-006 -5.604753885149139E-007 -2.424772940024500E-004
  7.913721228891031E-003 -3.516920184657895E-004  1.008954910940122E-004
 -3.516920184657895E-004  7.834117383451130E-003  1.248481605503091E-005
  1.008954910940122E-004  1.248481605503091E-005  7.211316425008000E-003
  9.726542896885723E-006 -5.604753885149139E-007  1.607925019652395E-007
 -5.604753885149139E-007  1.248481605503091E-005 -9.051774036598066E-004
  1.607925019652395E-007 -9.051774036598066E-004  8.607771158266175E-006
  7.860462804598617E-005 -4.529457167895737E-006 -9.038978626136997E-004
 -4.529457167895737E-006  1.008954910940122E-004  1.607925019652395E-007
 -9.038978626136997E-004  1.607925019652395E-007  6.956332351313844E-005
  9.726542896885723E-006 -5.604753885149139E-007  1.607925019652395E-007
 -5.604753885149139E-007  1.248481605503091E-005 -9.051774036598066E-004
  1.607925019652395E-007 -9.051774036598066E-004  8.607771158266175E-006
  6.017810229603209E-003 -2.424772940024500E-004  6.956332351313844E-005
 -2.424772940024500E-004  7.211316425008000E-003  8.607771158266175E-006
  6.956332351313844E-005  8.607771158266175E-006  3.724216123138873E-003
 dShat/dC
 -3.022787218585238E-004  3.899204096185776E-005 -1.118626785665075E-005
  3.899204096185776E-005  5.546621384979707E-004 -1.384189670105859E-006
 -1.118626785665075E-005 -1.384189670105859E-006  5.532582344217694E-004
  5.019991408611983E-004 -4.873134407291185E-004  9.771114243623230E-006
 -4.873134407291185E-004  6.356130636649439E-004  1.209078450003879E-006
  9.771114243623230E-006  1.209078450003879E-006  4.645191927840702E-004
 -9.143659370118939E-005  6.319098876074914E-006 -4.550670697494161E-004
  6.319098876074914E-006 -1.155771137815243E-004 -2.243235073844079E-007
 -4.550670697494161E-004 -2.243235073844079E-007 -8.506531145055679E-005
  5.019991408611983E-004 -4.873134407291185E-004  9.771114243623230E-006
 -4.873134407291185E-004  6.356130636649439E-004  1.209078450003879E-006
  9.771114243623230E-006  1.209078450003879E-006  4.645191927840702E-004
 -4.386096380902364E-005  8.693398272607279E-005 -2.494013631065302E-005
  8.693398272607279E-005 -1.165071322919348E-003 -3.086094441383605E-006
 -2.494013631065302E-005 -3.086094441383605E-006 -6.173684392892377E-005
  1.207344690905707E-005 -7.535490657434293E-007  2.161826230327518E-007
 -7.535490657434293E-007  1.539872270531516E-005 -4.532274587492297E-004
  2.161826230327518E-007 -4.532274587492297E-004  1.091305432284078E-005
 -9.143659370118939E-005  6.319098876074914E-006 -4.550670697494161E-004
  6.319098876074914E-006 -1.155771137815243E-004 -2.243235073844079E-007
 -4.550670697494161E-004 -2.243235073844079E-007 -8.506531145055679E-005
  1.207344690905707E-005 -7.535490657434293E-007  2.161826230327518E-007
 -7.535490657434293E-007  1.539872270531516E-005 -4.532274587492297E-004
  2.161826230327518E-007 -4.532274587492297E-004  1.091305432284078E-005
  1.792272634708009E-004  6.464804066112179E-005 -1.854661313959857E-005
  6.464804066112179E-005  1.193190351590637E-005 -2.294959378075211E-006
 -1.854661313959857E-005 -2.294959378075211E-006 -7.330865401944944E-004
 CCvol
  0.151629283573931      -3.611564437507379E-002  7.390208156627832E-003
 -3.611564437507379E-002  0.227318661979605      -4.011079764061487E-004
  7.390208156627832E-003 -4.011079764061487E-004  0.160822804992153     
 -3.611564437507380E-002  8.128853585785172E-003 -1.763169302933110E-003
  8.128853585785172E-003 -5.391816168543371E-002  7.316952465048754E-005
 -1.763169302933110E-003  7.316952465048754E-005 -3.830567926866758E-002
  7.390208156627832E-003 -1.763169302933111E-003  1.294288887545680E-005
 -1.763169302933111E-003  1.108060814724214E-002  6.301555943351689E-005
  1.294288887545680E-005  6.301555943351689E-005  7.804439469275812E-003
 -3.611564437507380E-002  8.128853585785172E-003 -1.763169302933110E-003
  8.128853585785172E-003 -5.391816168543371E-002  7.316952465048754E-005
 -1.763169302933110E-003  7.316952465048754E-005 -3.830567926866758E-002
  0.227318661979605      -5.391816168543372E-002  1.108060814724214E-002
 -5.391816168543372E-002  0.337957820394879      -6.076084431758146E-004
  1.108060814724214E-002 -6.076084431758146E-004  0.240099668723753     
 -4.011079764061487E-004  7.316952465048754E-005  6.301555943351689E-005
  7.316952465048754E-005 -6.076084431758146E-004 -5.184881755216490E-004
  6.301555943351689E-005 -5.184881755216490E-004 -4.298026974222296E-004
  7.390208156627832E-003 -1.763169302933111E-003  1.294288887545680E-005
 -1.763169302933111E-003  1.108060814724214E-002  6.301555943351689E-005
  1.294288887545680E-005  6.301555943351689E-005  7.804439469275812E-003
 -4.011079764061487E-004  7.316952465048754E-005  6.301555943351689E-005
  7.316952465048754E-005 -6.076084431758146E-004 -5.184881755216490E-004
  6.301555943351689E-005 -5.184881755216490E-004 -4.298026974222296E-004
  0.160822804992153      -3.830567926866759E-002  7.804439469275812E-003
 -3.830567926866759E-002  0.240099668723753      -4.298026974222296E-004
  7.804439469275812E-003 -4.298026974222296E-004  0.169103724855216     
 CCiso
  1.899970924722458E-003 -8.329370722615316E-004  1.557878080536523E-004
 -8.329370722615316E-004 -1.677359916589482E-003 -6.051508005856054E-005
  1.557878080536523E-004 -6.051508005856054E-005 -1.002127617525837E-003
 -8.329370722615314E-004  2.982485358219384E-003 -6.190903421872160E-005
  2.982485358219384E-003 -1.557649382274462E-003  1.822363591902909E-004
 -6.190903421872160E-005  1.822363591902909E-004  1.230347643545817E-004
  1.557878080536522E-004 -6.190903421872160E-005  1.636838622922902E-003
 -6.190903421872160E-005 -5.372660618816006E-005 -6.045550564370999E-004
  1.636838622922902E-003 -6.045550564370999E-004  2.021901801928346E-004
 -8.329370722615314E-004  2.982485358219384E-003 -6.190903421872160E-005
  2.982485358219384E-003 -1.557649382274462E-003  1.822363591902909E-004
 -6.190903421872160E-005  1.822363591902909E-004  1.230347643545817E-004
 -1.677359916589483E-003 -1.557649382274462E-003 -5.372660618816010E-005
 -1.557649382274462E-003  6.125961831188594E-003 -3.267334411332645E-005
 -5.372660618816010E-005 -3.267334411332645E-005 -1.638829556723845E-003
 -6.051508005856053E-005  1.822363591902909E-004 -6.045550564370999E-004
  1.822363591902909E-004 -3.267334411332645E-005  2.875260463388714E-003
 -6.045550564370999E-004  2.875260463388714E-003 -2.318947211662439E-005
  1.557878080536522E-004 -6.190903421872160E-005  1.636838622922902E-003
 -6.190903421872160E-005 -5.372660618816006E-005 -6.045550564370999E-004
  1.636838622922902E-003 -6.045550564370999E-004  2.021901801928346E-004
 -6.051508005856053E-005  1.822363591902909E-004 -6.045550564370999E-004
  1.822363591902909E-004 -3.267334411332645E-005  2.875260463388714E-003
 -6.045550564370999E-004  2.875260463388714E-003 -2.318947211662439E-005
 -1.002127617525836E-003  1.230347643545813E-004  2.021901801928341E-004
  1.230347643545813E-004 -1.638829556723847E-003 -2.318947211662439E-005
  2.021901801928341E-004 -2.318947211662439E-005  2.754472960379594E-003
 CC_ref
  0.153529254498654      -3.694858144733532E-002  7.545995964681484E-003
 -3.694858144733532E-002  0.225641302063016      -4.616230564647093E-004
  7.545995964681484E-003 -4.616230564647093E-004  0.159820677374627     
 -3.694858144733533E-002  1.111133894400456E-002 -1.825078337151832E-003
  1.111133894400456E-002 -5.547581106770817E-002  2.554058838407784E-004
 -1.825078337151832E-003  2.554058838407784E-004 -3.818264450431300E-002
  7.545995964681484E-003 -1.825078337151832E-003  1.649781511798359E-003
 -1.825078337151832E-003  1.102688154105397E-002 -5.415394970035830E-004
  1.649781511798359E-003 -5.415394970035830E-004  8.006629649468647E-003
 -3.694858144733533E-002  1.111133894400456E-002 -1.825078337151832E-003
  1.111133894400456E-002 -5.547581106770817E-002  2.554058838407784E-004
 -1.825078337151832E-003  2.554058838407784E-004 -3.818264450431300E-002
  0.225641302063016      -5.547581106770818E-002  1.102688154105397E-002
 -5.547581106770818E-002  0.344083782226068      -6.402817872891410E-004
  1.102688154105397E-002 -6.402817872891410E-004  0.238460839167029     
 -4.616230564647093E-004  2.554058838407784E-004 -5.415394970035830E-004
  2.554058838407784E-004 -6.402817872891410E-004  2.356772287867065E-003
 -5.415394970035830E-004  2.356772287867065E-003 -4.529921695388540E-004
  7.545995964681484E-003 -1.825078337151832E-003  1.649781511798359E-003
 -1.825078337151832E-003  1.102688154105397E-002 -5.415394970035830E-004
  1.649781511798359E-003 -5.415394970035830E-004  8.006629649468647E-003
 -4.616230564647093E-004  2.554058838407784E-004 -5.415394970035830E-004
  2.554058838407784E-004 -6.402817872891410E-004  2.356772287867065E-003
 -5.415394970035830E-004  2.356772287867065E-003 -4.529921695388540E-004
  0.159820677374628      -3.818264450431301E-002  8.006629649468647E-003
 -3.818264450431301E-002  0.238460839167029      -4.529921695388540E-004
  8.006629649468647E-003 -4.529921695388540E-004  0.171858197815595     
 DDSDDE
  0.203913461648509       0.199073706911569       0.199620955826525     
  6.889927763070633E-005 -2.521759006525592E-005  7.261852059089195E-006
  0.199073706911569       0.204109535788885       0.199424881723887     
  3.516409944028008E-005  2.279479841126165E-005 -7.869060765678563E-006
  0.199620955826525       0.199424881723887       0.203562286928979     
 -1.040635038138274E-004  2.422817812287262E-006  6.072195398014411E-007
  6.889927763069413E-005  3.516409944028822E-005 -1.040635038138382E-004
  2.618727523377867E-003 -4.152122267062193E-005 -3.388801975958356E-005
 -2.521759006525643E-005  2.279479841126501E-005  2.422817812288116E-006
 -4.152122267062280E-005  2.037425814987629E-003  2.475971512246931E-005
  7.261852059088460E-006 -7.869060765677933E-006  6.072195398016512E-007
 -3.388801975958332E-005  2.475971512246936E-005  2.191498946729135E-003

               CONVERGENCE CHECKS FOR EQUILIBRIUM ITERATION     3


 AVERAGE FORCE                      2.882E-04   TIME AVG. FORCE       2.882E-04
 LARGEST RESIDUAL FORCE             2.029E-04   AT NODE          1   DOF  1
   INSTANCE:                                                                                 
 LARGEST INCREMENT OF DISP.          2.45       AT NODE        648   DOF  2
   INSTANCE: PART-1-1                                                                        
 LARGEST CORRECTION TO DISP.       -8.892E-02   AT NODE        577   DOF  2
   INSTANCE: PART-1-1                                                                        
          FORCE     EQUILIBRIUM NOT ACHIEVED WITHIN TOLERANCE.

 AVERAGE MOMENT                      0.00       TIME AVG. MOMENT      3.072E-02
                                                (FROM FORCE     FIELD)
 LARGEST RESIDUAL MOMENT            7.449E-10   AT NODE          1   DOF  6
   INSTANCE:                                                                                 
 LARGEST INCREMENT OF ROTATION      1.000E-02   AT NODE          1   DOF  4
   INSTANCE: {assembly node}                                                                 
 LARGEST CORRECTION TO ROTATION     3.126E-10   AT NODE          1   DOF  5
   INSTANCE: {assembly node}                                                                 
          THERE IS ZERO MOMENT    EVERYWHERE

  NUMBER OF EQUATIONS =      3678     NUMBER OF RHS =    1
  NUMBER OF FLOATING PT. OPERATIONS =  1.39E+08

     CHECK POINT   START OF SOLVER    

     CHECK POINT  END OF SOLVER       

       ELAPSED USER TIME (SEC)      =  4.00000E-02
       ELAPSED SYSTEM TIME (SEC)    =  1.00000E-02
       ELAPSED TOTAL CPU TIME (SEC) =  5.00000E-02
       ELAPSED WALLCLOCK TIME (SEC) =          0
 ***************************************************
 deformation gradient
   1.05019786829676       0.300470796794072      -6.933568646125472E-002
 -7.341068237911962E-002  0.891723443116379      -1.194719893360887E-003
  1.824281265078073E-002 -4.759974486848635E-003   1.04439309195321     
 J
   1.00218772153163     
 C
   1.19800569971819       0.190923948052304      -5.468538233516403E-002
  0.190923948052304       0.800561254646321      -6.831555367212222E-003
 -5.468538233516403E-002 -6.831555367212222E-003   1.09111238809012     
 Chat
   1.19626161035547       0.190645995762958      -5.460576986449763E-002
  0.190645995762958       0.799395775743539      -6.821609802638043E-003
 -5.460576986449763E-002 -6.821609802638043E-003   1.08952391692504     
 I1hat, I2hat, I4ahat, I4shat
   3.08518130302405        3.09122870998207        1.19626161035547     
  0.799395775743539     
 S^hat
  3.007129906392550E-003 -1.730701882527177E-004  4.957162007159984E-005
 -1.730701882527177E-004  3.860317042601358E-003  6.192720114599657E-006
  4.957162007159984E-005  6.192720114599657E-006  2.654608455624199E-003
 S_iso
  2.477104727254686E-004  4.830818251954278E-004 -8.447362482600237E-005
  4.830818251954278E-004 -2.588925905733723E-004  1.330114694732192E-005
 -8.447362482600237E-005  1.330114694732192E-005 -2.593870768061739E-004
 S
  6.290517429248108E-004  3.922948977175633E-004 -6.592963480242577E-005
  3.922948977175633E-004  3.104931961949251E-004  1.231598050224832E-005
 -6.592963480242577E-005  1.231598050224832E-005  1.434210034514180E-004
 sigma
  6.310835857696275E-004  5.358877166096466E-004 -1.144644259451570E-004
  5.358877166096465E-004  5.128733651378686E-004 -4.768149905250062E-005
 -1.144644259451571E-004 -4.768149905250062E-005  1.686756854489153E-004
 Psi24a
  5.298217848414131E-005
 CChat
  4.755136357190689E-003 -2.738333772175935E-004  7.843271146462435E-005
 -2.738333772175935E-004  7.913060220527526E-003  9.798183501528132E-006
  7.843271146462435E-005  9.798183501528132E-006  6.017459002453590E-003
 -2.738333772175935E-004 -8.893957320225868E-004 -4.517540682298808E-006
 -8.893957320225868E-004 -3.515009179932400E-004 -5.643524462461896E-007
 -4.517540682298808E-006 -5.643524462461896E-007 -2.423526062319721E-004
  7.843271146462435E-005 -4.517540682298808E-006 -9.038739575351211E-004
 -4.517540682298808E-006  1.006786329725151E-004  1.616446213772162E-007
 -9.038739575351211E-004  1.616446213772162E-007  6.941583319913393E-005
 -2.738333772175935E-004 -8.893957320225868E-004 -4.517540682298808E-006
 -8.893957320225868E-004 -3.515009179932400E-004 -5.643524462461896E-007
 -4.517540682298808E-006 -5.643524462461896E-007 -2.423526062319721E-004
  7.913060220527526E-003 -3.515009179932400E-004  1.006786329725151E-004
 -3.515009179932400E-004  7.833640945677905E-003  1.257724872858224E-005
  1.006786329725151E-004  1.257724872858224E-005  7.211086686135708E-003
  9.798183501528132E-006 -5.643524462461896E-007  1.616446213772162E-007
 -5.643524462461896E-007  1.257724872858224E-005 -9.051477004936335E-004
  1.616446213772162E-007 -9.051477004936335E-004  8.671752625858812E-006
  7.843271146462435E-005 -4.517540682298808E-006 -9.038739575351211E-004
 -4.517540682298808E-006  1.006786329725151E-004  1.616446213772162E-007
 -9.038739575351211E-004  1.616446213772162E-007  6.941583319913393E-005
  9.798183501528132E-006 -5.643524462461896E-007  1.616446213772162E-007
 -5.643524462461896E-007  1.257724872858224E-005 -9.051477004936335E-004
  1.616446213772162E-007 -9.051477004936335E-004  8.671752625858812E-006
  6.017459002453590E-003 -2.423526062319721E-004  6.941583319913393E-005
 -2.423526062319721E-004  7.211086686135708E-003  8.671752625858812E-006
  6.941583319913393E-005  8.671752625858812E-006  3.724206845435716E-003
 dShat/dC
 -3.019649014968758E-004  3.895324393760083E-005 -1.115718095950460E-005
  3.895324393760083E-005  5.550054376013262E-004 -1.393807562681147E-006
 -1.115718095950460E-005 -1.393807562681147E-006  5.534882146347254E-004
  5.016324890781375E-004 -4.872635579083618E-004  9.744109868823419E-006
 -4.872635579083618E-004  6.351766085859810E-004  1.217280070660889E-006
  9.744109868823419E-006  1.217280070660889E-006  4.642171559986646E-004
 -9.119625797119379E-005  6.299905087997971E-006 -4.550482416222107E-004
  6.299905087997971E-006 -1.152782723288037E-004 -2.254203878344781E-007
 -4.550482416222107E-004 -2.254203878344781E-007 -8.484908217076690E-005
  5.016324890781375E-004 -4.872635579083618E-004  9.744109868823419E-006
 -4.872635579083618E-004  6.351766085859810E-004  1.217280070660889E-006
[...]
 -2.888241533733782E-002  0.190830553084067       5.010118001442365E-003
 -1.057018725053241E-002  5.010118001442365E-003  0.145768292927120     
 -2.888241533733782E-002  1.118827416104376E-002  3.649963609968980E-003
  1.118827416104376E-002 -6.534982711921403E-002 -2.017923031928288E-003
  3.649963609968980E-003 -2.017923031928288E-003 -4.869534902622612E-002
 -1.057018725053241E-002  3.649963609968980E-003  2.110079962264420E-003
  3.649963609968980E-003 -2.335967789714229E-002 -1.227563556800102E-003
  2.110079962264420E-003 -1.227563556800102E-003 -1.823078846370393E-002
 -2.888241533733782E-002  1.118827416104376E-002  3.649963609968980E-003
  1.118827416104376E-002 -6.534982711921403E-002 -2.017923031928288E-003
  3.649963609968980E-003 -2.017923031928288E-003 -4.869534902622612E-002
  0.190830553084067      -6.534982711921403E-002 -2.335967789714229E-002
 -6.534982711921403E-002  0.433784302119821       1.146222614764677E-002
 -2.335967789714229E-002  1.146222614764677E-002  0.324813733592769     
  5.010118001442365E-003 -2.017923031928287E-003 -1.227563556800102E-003
 -2.017923031928287E-003  1.146222614764677E-002  3.304357829639631E-003
 -1.227563556800102E-003  3.304357829639631E-003  8.750171658077776E-003
 -1.057018725053241E-002  3.649963609968980E-003  2.110079962264420E-003
  3.649963609968980E-003 -2.335967789714229E-002 -1.227563556800102E-003
  2.110079962264420E-003 -1.227563556800102E-003 -1.823078846370393E-002
  5.010118001442365E-003 -2.017923031928287E-003 -1.227563556800102E-003
 -2.017923031928287E-003  1.146222614764677E-002  3.304357829639631E-003
 -1.227563556800102E-003  3.304357829639631E-003  8.750171658077776E-003
  0.145768292927120      -4.869534902622612E-002 -1.823078846370393E-002
 -4.869534902622612E-002  0.324813733592769       8.750171658077776E-003
 -1.823078846370393E-002  8.750171658077776E-003  0.252284357906312     
 DDSDDE
  0.206142643958521       0.200390487109055       0.200217312683293     
  3.819424419785457E-005  5.067403754232642E-004 -2.042710868368702E-004
  0.200390487109055       0.205549996245966       0.200809960754692     
 -5.665351083886658E-005 -4.783769514567419E-004  8.493524175261578E-005
  0.200217312683293       0.200809960754692       0.205723170578034     
  1.845923189208074E-005 -2.836368126765123E-005  1.193358152722146E-004
  3.819424419786257E-005 -5.665351083886141E-005  1.845923189208419E-005
  2.466835151996452E-003  2.704345493646084E-004  1.269812928412944E-004
  5.067403754232578E-004 -4.783769514567160E-004 -2.836368126766576E-005
  2.704345493646076E-004  3.246625275800533E-003  5.906706416964050E-005
 -2.042710868368329E-004  8.493524175257446E-005  1.193358152722904E-004
  1.269812928412960E-004  5.906706416964223E-005  2.404125353187008E-003

               CONVERGENCE CHECKS FOR EQUILIBRIUM ITERATION     4


 AVERAGE FORCE                      7.214E-04   TIME AVG. FORCE       3.992E-04
 LARGEST RESIDUAL FORCE             1.988E-04   AT NODE          1   DOF  1
   INSTANCE:                                                                                 
 LARGEST INCREMENT OF DISP.         -3.57       AT NODE          1   DOF  2
   INSTANCE: PART-1-1                                                                        
 LARGEST CORRECTION TO DISP.        3.695E-02   AT NODE         73   DOF  2
   INSTANCE: PART-1-1                                                                        
          FORCE     EQUILIBRIUM NOT ACHIEVED WITHIN TOLERANCE.

 AVERAGE MOMENT                      0.00       TIME AVG. MOMENT      1.000E-02
 LARGEST RESIDUAL MOMENT           -5.093E-09   AT NODE          1   DOF  5
   INSTANCE:                                                                                 
 LARGEST INCREMENT OF ROTATION      0.156       AT NODE          1   DOF  4
   INSTANCE: {assembly node}                                                                 
 LARGEST CORRECTION TO ROTATION     1.624E-09   AT NODE          1   DOF  5
   INSTANCE: {assembly node}                                                                 
          THERE IS ZERO MOMENT    EVERYWHERE

  NUMBER OF EQUATIONS =      3678     NUMBER OF RHS =    1
  NUMBER OF FLOATING PT. OPERATIONS =  1.39E+08

     CHECK POINT   START OF SOLVER    

     CHECK POINT  END OF SOLVER       

       ELAPSED USER TIME (SEC)      =  4.00000E-02
       ELAPSED SYSTEM TIME (SEC)    =  1.00000E-02
       ELAPSED TOTAL CPU TIME (SEC) =  5.00000E-02
       ELAPSED WALLCLOCK TIME (SEC) =          0
 ***************************************************
 deformation gradient
   1.19957520221862       2.233007462469406E-002  0.428449348956350     
 -6.329535967296626E-002  0.465431552438740       0.710086253691005     
 -7.696709408546085E-002 -0.803736379890849       0.509336944450358     
 J
   1.00564141812540     
 C
   1.62304814263172       0.238701570516210       0.107949771455882     
  0.238701570516210       0.724855320242592      -7.539448389790315E-003
  0.107949771455882      -7.539448389790315E-003  0.911340224914034     
 Chat
   1.61697250074679       0.237808026312725       0.107545677371610     
  0.237808026312725       0.722141931016172      -7.511225574198416E-003
  0.107545677371610      -7.511225574198416E-003  0.907928756888859     
 I1hat, I2hat, I4ahat, I4shat
   3.24704318865182        3.22325775373097        1.61697250074679     
  0.722141931016172     
 S^hat
  3.079390128399923E-003 -2.398151455983151E-004 -1.084533717269327E-004
 -2.398151455983151E-004  4.529075258500596E-003  7.574620935331299E-006
 -1.084533717269327E-004  7.574620935331299E-006  3.295619495725037E-003
 S_iso
  6.502303070147878E-004  5.602787888557131E-004  1.849369130227015E-004
  5.602787888557131E-004 -8.590956792728835E-004 -1.315555305071420E-004
  1.849369130227015E-004 -1.315555305071420E-004 -8.142137150656190E-004
 S
  1.391318052005877E-003  3.152975906078212E-004  9.512712128556772E-005
  3.152975906078212E-004  7.873675341446010E-004 -8.891603350835313E-005
  9.512712128556772E-005 -8.891603350835313E-005  4.418102573878775E-004
 sigma
  1.930648230424435E-003  1.230832959518903E-004  9.795746874660745E-004
  1.230832959518903E-004  5.233752847585472E-004  1.576449079123868E-004
  9.795746874660745E-004  1.576449079123867E-004  9.308270309719919E-004
 Psi24a
  6.724331080849838E-005
 CChat
  5.126343801766985E-003 -3.996166107108155E-004 -1.807215666948331E-004
 -3.996166107108155E-004  9.542643332582919E-003  1.262198989994712E-005
 -1.807215666948331E-004  1.262198989994712E-005  7.502806418967653E-003
 -3.996166107108155E-004 -9.697462547544978E-004  1.409084117433002E-005
 -9.697462547544978E-004 -5.879547766267214E-004 -9.841351988967534E-007
  1.409084117433002E-005 -9.841351988967534E-007 -4.289718079963869E-004
 -1.807215666948331E-004  1.409084117433002E-005 -9.945319140238513E-004
  1.409084117433002E-005 -2.658951243009878E-004 -4.450627181582742E-007
 -9.945319140238513E-004 -4.450627181582742E-007 -1.939970840329336E-004
 -3.996166107108155E-004 -9.697462547544978E-004  1.409084117433002E-005
 -9.697462547544978E-004 -5.879547766267214E-004 -9.841351988967534E-007
  1.409084117433002E-005 -9.841351988967534E-007 -4.289718079963869E-004
  9.542643332582919E-003 -5.879547766267214E-004 -2.658951243009878E-004
 -5.879547766267214E-004  1.109481496392445E-002  1.857069764694667E-005
 -2.658951243009878E-004  1.857069764694667E-005  1.009605805808327E-002
  1.262198989994712E-005 -9.841351988967534E-007 -4.450627181582742E-007
 -9.841351988967534E-007  1.857069764694667E-005 -1.000873234881422E-003
 -4.450627181582742E-007 -1.000873234881422E-003  1.354918109700566E-005
 -1.807215666948331E-004  1.409084117433002E-005 -9.945319140238513E-004
  1.409084117433002E-005 -2.658951243009878E-004 -4.450627181582742E-007
 -9.945319140238513E-004 -4.450627181582742E-007 -1.939970840329336E-004
  1.262198989994712E-005 -9.841351988967534E-007 -4.450627181582742E-007
 -9.841351988967534E-007  1.857069764694667E-005 -1.000873234881422E-003
 -4.450627181582742E-007 -1.000873234881422E-003  1.354918109700566E-005
  7.502806418967653E-003 -4.289718079963869E-004 -1.939970840329336E-004
 -4.289718079963869E-004  1.009605805808327E-002  1.354918109700566E-005
 -1.939970840329336E-004  1.354918109700566E-005  5.906241122296577E-003
 dShat/dC
  1.858874953368081E-004  9.846194766556297E-006  4.452817266603074E-006
  9.846194766556297E-006  1.249804541644238E-003 -3.109945071485522E-007
  4.452817266603074E-006 -3.109945071485522E-007  1.074129662985614E-003
  5.884829546579727E-004 -5.562486160076957E-004 -2.438285217239426E-005
 -5.562486160076957E-004  8.749514929526839E-004  1.702951780910292E-006
 -2.438285217239426E-005  1.702951780910292E-006  6.743934334021175E-004
  1.985614828692044E-004 -1.842637341868548E-005 -5.106656622947829E-004
 -1.842637341868548E-005  2.954856639960543E-004  5.820015808892589E-007
 -5.106656622947829E-004  5.820015808892589E-007  2.287944608491960E-004
  5.884829546579727E-004 -5.562486160076957E-004 -2.438285217239426E-005
 -5.562486160076957E-004  8.749514929526839E-004  1.702951780910292E-006
 -2.438285217239426E-005  1.702951780910292E-006  6.743934334021175E-004
 -5.137234237475314E-004  1.723721445474267E-004  7.795312602684081E-005
  1.723721445474267E-004 -2.295278902183102E-003 -5.444416996680562E-006
  7.795312602684081E-005 -5.444416996680562E-006 -9.123767184957470E-004
 -1.309997292094482E-004  1.161203810398740E-005  5.251397620684302E-006
  1.161203810398740E-005 -1.943265698239331E-004 -5.026993366723321E-004
  5.251397620684302E-006 -5.026993366723321E-004 -1.480515587915040E-004
  1.985614828692044E-004 -1.842637341868548E-005 -5.106656622947829E-004
 -1.842637341868548E-005  2.954856639960543E-004  5.820015808892589E-007
 -5.106656622947829E-004  5.820015808892589E-007  2.287944608491960E-004
 -1.309997292094482E-004  1.161203810398740E-005  5.251397620684302E-006
  1.161203810398740E-005 -1.943265698239331E-004 -5.026993366723321E-004
  5.251397620684302E-006 -5.026993366723321E-004 -1.480515587915040E-004
 -2.799369464402670E-004  1.413111041476045E-004  6.390616267803864E-005
  1.413111041476045E-004 -9.317906953287144E-004 -4.463346321187261E-006
  6.390616267803864E-005 -4.463346321187261E-006 -1.597219108404699E-003
 CCvol
  8.580044427676316E-002 -2.836303230108824E-002 -1.039785110944224E-002
 -2.836303230108824E-002  0.192666487777049       4.953563743070094E-003
 -1.039785110944224E-002  4.953563743070094E-003  0.147044397174847     
 -2.836303230108824E-002  8.353478785968942E-003  3.428756233354072E-003
  8.353478785968942E-003 -6.301371142667481E-002 -1.510791154957895E-003
  3.428756233354072E-003 -1.510791154957895E-003 -4.860638092054692E-002
 -1.039785110944225E-002  3.428756233354072E-003  4.468241666897204E-004
  3.428756233354072E-003 -2.334297484772736E-002 -3.304423522813690E-004
  4.468241666897204E-004 -3.304423522813690E-004 -1.762267740052654E-002
 -2.836303230108824E-002  8.353478785968942E-003  3.428756233354072E-003
  8.353478785968942E-003 -6.301371142667481E-002 -1.510791154957895E-003
  3.428756233354072E-003 -1.510791154957895E-003 -4.860638092054692E-002
  0.192666487777049      -6.301371142667482E-002 -2.334297484772736E-002
 -6.301371142667482E-002  0.423500899444302       1.096767008438521E-002
 -2.334297484772736E-002  1.096767008438521E-002  0.326714650901047     
  4.953563743070094E-003 -1.510791154957895E-003 -3.304423522813689E-004
 -1.510791154957895E-003  1.096767008438521E-002 -1.536949025921540E-003
 -3.304423522813689E-004 -1.536949025921540E-003  8.366817087492298E-003
 -1.039785110944225E-002  3.428756233354072E-003  4.468241666897204E-004
  3.428756233354072E-003 -2.334297484772736E-002 -3.304423522813690E-004
  4.468241666897204E-004 -3.304423522813690E-004 -1.762267740052654E-002
  4.953563743070094E-003 -1.510791154957895E-003 -3.304423522813689E-004
 -1.510791154957895E-003  1.096767008438521E-002 -1.536949025921540E-003
 -3.304423522813689E-004 -1.536949025921540E-003  8.366817087492298E-003
  0.147044397174847      -4.860638092054692E-002 -1.762267740052654E-002
 -4.860638092054692E-002  0.326714650901047       8.366817087492298E-003
 -1.762267740052654E-002  8.366817087492298E-003  0.246459821871782     
 CCiso
  9.128082137410292E-004 -4.972458478865214E-004 -1.717004533803604E-004
 -4.972458478865214E-004 -1.827798995524812E-003  5.017160754175409E-005
 -1.717004533803604E-004  5.017160754175409E-005 -1.296869473804585E-003
 -4.972458478865220E-004  2.818363193322873E-003  2.187323024800500E-004
  2.818363193322873E-003 -2.298023486411060E-003 -5.035248794715393E-004
  2.187323024800500E-004 -5.035248794715393E-004 -5.275907995582531E-005
 -1.717004533803601E-004  2.187323024800500E-004  1.660561897034255E-003
  2.187323024800500E-004 -2.020153271679238E-005 -8.950880781122792E-004
  1.660561897034255E-003 -8.950880781122792E-004 -6.067849883253029E-004
 -4.972458478865220E-004  2.818363193322873E-003  2.187323024800500E-004
  2.818363193322873E-003 -2.298023486411060E-003 -5.035248794715393E-004
  2.187323024800500E-004 -5.035248794715393E-004 -5.275907995582531E-005
 -1.827798995524811E-003 -2.298023486411059E-003 -2.020153271679200E-005
 -2.298023486411059E-003  1.036777878026257E-002  4.818343232918152E-004
 -2.020153271679200E-005  4.818343232918152E-004 -1.889120577945664E-003
  5.017160754175413E-005 -5.035248794715393E-004 -8.950880781122792E-004
 -5.035248794715393E-004  4.818343232918151E-004  4.835056653212445E-003
 -8.950880781122792E-004  4.835056653212445E-003  3.719365906967414E-004
 -1.717004533803601E-004  2.187323024800500E-004  1.660561897034255E-003
  2.187323024800500E-004 -2.020153271679238E-005 -8.950880781122792E-004
  1.660561897034255E-003 -8.950880781122792E-004 -6.067849883253029E-004
  5.017160754175413E-005 -5.035248794715393E-004 -8.950880781122792E-004
 -5.035248794715393E-004  4.818343232918151E-004  4.835056653212445E-003
 -8.950880781122792E-004  4.835056653212445E-003  3.719365906967414E-004
 -1.296869473804588E-003 -5.275907995582531E-005 -6.067849883253026E-004
 -5.275907995582531E-005 -1.889120577945670E-003  3.719365906967420E-004
 -6.067849883253026E-004  3.719365906967420E-004  5.776600797943057E-003
 CC_ref
  8.671325249050418E-002 -2.886027814897476E-002 -1.056955156282260E-002
 -2.886027814897476E-002  0.190838688781524       5.003735350611848E-003
 -1.056955156282260E-002  5.003735350611848E-003  0.145747527701042     
 -2.886027814897477E-002  1.117184197929181E-002  3.647488535834122E-003
  1.117184197929181E-002 -6.531173491308587E-002 -2.014316034429435E-003
  3.647488535834122E-003 -2.014316034429435E-003 -4.865914000050275E-002
 -1.056955156282261E-002  3.647488535834123E-003  2.107386063723975E-003
  3.647488535834123E-003 -2.336317638044415E-002 -1.225530430393648E-003
  2.107386063723975E-003 -1.225530430393648E-003 -1.822946238885184E-002
 -2.886027814897477E-002  1.117184197929181E-002  3.647488535834122E-003
  1.117184197929181E-002 -6.531173491308587E-002 -2.014316034429435E-003
  3.647488535834122E-003 -2.014316034429435E-003 -4.865914000050275E-002
  0.190838688781524      -6.531173491308588E-002 -2.336317638044415E-002
 -6.531173491308588E-002  0.433868678224565       1.144950440767703E-002
 -2.336317638044415E-002  1.144950440767703E-002  0.324825530323102     
  5.003735350611848E-003 -2.014316034429435E-003 -1.225530430393648E-003
 -2.014316034429435E-003  1.144950440767703E-002  3.298107627290905E-003
 -1.225530430393648E-003  3.298107627290905E-003  8.738753678189040E-003
 -1.056955156282261E-002  3.647488535834123E-003  2.107386063723975E-003
  3.647488535834123E-003 -2.336317638044415E-002 -1.225530430393648E-003
  2.107386063723975E-003 -1.225530430393648E-003 -1.822946238885184E-002
  5.003735350611848E-003 -2.014316034429435E-003 -1.225530430393648E-003
 -2.014316034429435E-003  1.144950440767703E-002  3.298107627290905E-003
 -1.225530430393648E-003  3.298107627290905E-003  8.738753678189040E-003
  0.145747527701042      -4.865914000050275E-002 -1.822946238885184E-002
 -4.865914000050275E-002  0.324825530323102       8.738753678189040E-003
 -1.822946238885184E-002  8.738753678189040E-003  0.252236422669725     
 DDSDDE
  0.206148951264113       0.200396956348013       0.200223793935102     
  3.814591563863645E-005  5.066435263354654E-004 -2.043391736791301E-004
  0.200396956348013       0.205556158749092       0.200816586808974     
 -5.664193419740922E-005 -4.781745387870741E-004  8.500741019365467E-005
  0.200223793935102       0.200816586808974       0.205729321068370     
  1.849598383289613E-005 -2.846924476374176E-005  1.193317337446526E-004
  3.814591563863415E-005 -5.664193419741784E-005  1.849598383290130E-005
  2.466670502352967E-003  2.703423090791166E-004  1.268920301452125E-004
  5.066435263354414E-004 -4.781745387870966E-004 -2.846924476375672E-005
  2.703423090791188E-004  3.246106146354207E-003  5.887278747951453E-005
 -2.043391736791758E-004  8.500741019370984E-005  1.193317337446422E-004
  1.268920301452099E-004  5.887278747951539E-005  2.403870200862497E-003

               CONVERGENCE CHECKS FOR EQUILIBRIUM ITERATION     5


 AVERAGE FORCE                      7.214E-04   TIME AVG. FORCE       3.992E-04
 LARGEST RESIDUAL FORCE             1.109E-07   AT NODE        179   DOF  1
   INSTANCE: PART-1-1                                                                        
 LARGEST INCREMENT OF DISP.          3.57       AT NODE         72   DOF  2
   INSTANCE: PART-1-1                                                                        
 LARGEST CORRECTION TO DISP.       -5.787E-04   AT NODE        127   DOF  1
   INSTANCE: PART-1-1                                                                        
          THE FORCE     EQUILIBRIUM EQUATIONS HAVE CONVERGED

 AVERAGE MOMENT                      0.00       TIME AVG. MOMENT      1.000E-02
 LARGEST RESIDUAL MOMENT           -2.583E-10   AT NODE          1   DOF  5
   INSTANCE:                                                                                 
 LARGEST INCREMENT OF ROTATION      0.156       AT NODE          1   DOF  4
   INSTANCE: {assembly node}                                                                 
 LARGEST CORRECTION TO ROTATION     3.345E-10   AT NODE          1   DOF  6
   INSTANCE: {assembly node}                                                                 
          THERE IS ZERO MOMENT    EVERYWHERE

 ITERATION SUMMARY FOR THE INCREMENT:   5 TOTAL ITERATIONS, OF WHICH
   0 ARE SEVERE DISCONTINUITY ITERATIONS AND  5 ARE EQUILIBRIUM ITERATIONS.

 TIME INCREMENT COMPLETED   1.56    ,  FRACTION OF STEP COMPLETED   1.00    
 STEP TIME COMPLETED        10.0    ,  TOTAL TIME COMPLETED         10.0    


          THE ANALYSIS HAS BEEN COMPLETED



     ANALYSIS SUMMARY:
     TOTAL OF         12  INCREMENTS
                       0  CUTBACKS IN AUTOMATIC INCREMENTATION
                      50  ITERATIONS INCLUDING CONTACT ITERATIONS IF PRESENT
                      50  PASSES THROUGH THE EQUATION SOLVER OF WHICH 
                      50  INVOLVE MATRIX DECOMPOSITION, INCLUDING
                       0  DECOMPOSITION(S) OF THE MASS MATRIX
                       1  REORDERING OF EQUATIONS TO MINIMIZE WAVEFRONT
                       0  ADDITIONAL RESIDUAL EVALUATIONS FOR LINE SEARCHES
                       0  ADDITIONAL OPERATOR EVALUATIONS FOR LINE SEARCHES
                       1  WARNING MESSAGES DURING USER INPUT PROCESSING
                      15  WARNING MESSAGES DURING ANALYSIS
                       0  ANALYSIS WARNINGS ARE NUMERICAL PROBLEM MESSAGES
                      15  ANALYSIS WARNINGS ARE NEGATIVE EIGENVALUE MESSAGES
                       0  ERROR MESSAGES



     JOB TIME SUMMARY
       USER TIME (SEC)      =   38.520    
       SYSTEM TIME (SEC)    =  0.77000    
       TOTAL CPU TIME (SEC) =   39.290    
       WALLCLOCK TIME (SEC) =         41
