1

   Abaqus 2020                                  Date 30-May-2021   Time 21:19:38
   For use by PURDUE UNIVERSITY under license from Dassault Systemes or its subsidiary.

                                                                                 
                                                                                 
 STEP    1     INCREMENT     1     STEP TIME    0.00    


                        S T E P       1     S T A T I C   A N A L Y S I S


                                                                                          

          FIXED TIME INCREMENTS
          TIME INCREMENT IS                                    0.100    
          TIME PERIOD IS                                        1.00    

     LINEAR EQUATION SOLVER TYPE         DIRECT SPARSE

 CONVERGENCE TOLERANCE PARAMETERS FOR FORCE    
     CRITERION FOR RESIDUAL FORCE     FOR A NONLINEAR PROBLEM          5.000E-03
     CRITERION FOR DISP.    CORRECTION IN A NONLINEAR PROBLEM          1.000E-02
     INITIAL VALUE OF TIME AVERAGE FORCE                               1.000E-02
     AVERAGE FORCE     IS TIME AVERAGE FORCE    
     ALTERNATE CRIT. FOR RESIDUAL FORCE     FOR A NONLINEAR PROBLEM    2.000E-02
     CRITERION FOR ZERO FORCE     RELATIVE TO TIME AVRG. FORCE         1.000E-05
     CRITERION FOR RESIDUAL FORCE     WHEN THERE IS ZERO FLUX          1.000E-05
     CRITERION FOR DISP.    CORRECTION WHEN THERE IS ZERO FLUX         1.000E-03
     CRITERION FOR RESIDUAL FORCE     FOR A LINEAR INCREMENT           1.000E-08
     FIELD CONVERSION RATIO                                             1.00    
     CRITERION FOR ZERO FORCE     REL. TO TIME AVRG. MAX. FORCE        1.000E-05
     CRITERION FOR ZERO DISP.    RELATIVE TO CHARACTERISTIC LENGTH     1.000E-08

     VOLUMETRIC STRAIN COMPATIBILITY TOLERANCE FOR HYBRID SOLIDS       1.000E-05
     AXIAL STRAIN COMPATIBILITY TOLERANCE FOR HYBRID BEAMS             1.000E-05
     TRANS. SHEAR STRAIN COMPATIBILITY TOLERANCE FOR HYBRID BEAMS      1.000E-05
     SOFT CONTACT CONSTRAINT COMPATIBILITY TOLERANCE FOR P>P0          5.000E-03
     SOFT CONTACT CONSTRAINT COMPATIBILITY TOLERANCE FOR P=0.0         0.100    
     CONTACT FORCE ERROR TOLERANCE FOR CONVERT SDI=YES                 1.00    
     DISPLACEMENT COMPATIBILITY TOLERANCE FOR DCOUP ELEMENTS           1.000E-05
     ROTATION COMPATIBILITY TOLERANCE FOR DCOUP ELEMENTS               1.000E-05

 EQUILIBRIUM WILL BE CHECKED FOR SEVERE DISCONTINUITY ITERATIONS

 ITERATION CONTROL PARAMETERS:
     FIRST EQUILIBRIUM ITERATION FOR CONSECUTIVE DIVERGENCE CHECK              4
     EQUILIBRIUM ITERATION AFTER WHICH ALTERNATE RESIDUAL IS USED              9
     MAXIMUM EQUILIBRIUM ITERATIONS ALLOWED                                   16
     MAXIMUM ITERATIONS FOR SEVERE DISCONTINUITIES                            12
     GLOBAL STABILIZATION CONTROL IS NOT USED

          PRINT OF INCREMENT NUMBER, TIME, ETC., EVERY    1  INCREMENTS

     THE MAXIMUM NUMBER OF INCREMENTS IN THIS STEP IS                     100

          LARGE DISPLACEMENT THEORY WILL BE USED

     LINEAR EXTRAPOLATION WILL BE USED

     CHARACTERISTIC ELEMENT LENGTH      3.07    

     DETAILS REGARDING ACTUAL SOLUTION WAVEFRONT REQUESTED

     DETAILED OUTPUT OF DIAGNOSTICS TO DATABASE REQUESTED

     PRINT OF INCREMENT NUMBER, TIME, ETC., TO THE MESSAGE FILE EVERY     1  INCREMENTS

     COLLECTING MODEL CONSTRAINT INFORMATION FOR OVERCONSTRAINT CHECKS

     COLLECTING STEP CONSTRAINT INFORMATION FOR OVERCONSTRAINT CHECKS


  INCREMENT     1 STARTS. ATTEMPT NUMBER  1, TIME INCREMENT  0.100    
 ***************************************************
 deformation gradient
   1.00000000000000       0.000000000000000E+000  0.000000000000000E+000
  0.000000000000000E+000   1.00000000000000       0.000000000000000E+000
  0.000000000000000E+000  0.000000000000000E+000   1.00000000000000     
 J
   1.00000000000000     
 C
   1.00000000000000       0.000000000000000E+000  0.000000000000000E+000
  0.000000000000000E+000   1.00000000000000       0.000000000000000E+000
  0.000000000000000E+000  0.000000000000000E+000   1.00000000000000     
 Chat
   1.00000000000000       0.000000000000000E+000  0.000000000000000E+000
  0.000000000000000E+000   1.00000000000000       0.000000000000000E+000
  0.000000000000000E+000  0.000000000000000E+000   1.00000000000000     
 I1hat, I2hat, I4ahat, I4shat
   3.00000000000000        3.00000000000000        1.00000000000000     
   1.00000000000000     
 S^hat
  3.063952448142485E-003  0.000000000000000E+000  0.000000000000000E+000
  0.000000000000000E+000  3.549961814062381E-003  0.000000000000000E+000
  0.000000000000000E+000  0.000000000000000E+000  2.620871371385936E-003
 S_iso
 -1.430952146046845E-005  0.000000000000000E+000  0.000000000000000E+000
  0.000000000000000E+000  4.716998444594279E-004  0.000000000000000E+000
  0.000000000000000E+000  0.000000000000000E+000 -4.573905982170178E-004
 S
 -1.430952146046845E-005  0.000000000000000E+000  0.000000000000000E+000
  0.000000000000000E+000  4.716998444594279E-004  0.000000000000000E+000
  0.000000000000000E+000  0.000000000000000E+000 -4.573905982170178E-004
 sigma
 -1.430952146046845E-005  0.000000000000000E+000  0.000000000000000E+000
  0.000000000000000E+000  4.716998444594279E-004  0.000000000000000E+000
  0.000000000000000E+000  0.000000000000000E+000 -4.573905982170178E-004
 Psi24a
  5.115989765905884E-005
 CChat
  4.913165611957747E-003  0.000000000000000E+000  0.000000000000000E+000
  0.000000000000000E+000  7.480457292745978E-003  0.000000000000000E+000
  0.000000000000000E+000  0.000000000000000E+000  6.001448660827543E-003
  0.000000000000000E+000 -8.949645729622181E-004  0.000000000000000E+000
 -8.949645729622181E-004  0.000000000000000E+000  0.000000000000000E+000
  0.000000000000000E+000  0.000000000000000E+000  0.000000000000000E+000
  0.000000000000000E+000  0.000000000000000E+000 -8.949645729622181E-004
  0.000000000000000E+000  0.000000000000000E+000  0.000000000000000E+000
 -8.949645729622181E-004  0.000000000000000E+000  0.000000000000000E+000
  0.000000000000000E+000 -8.949645729622181E-004  0.000000000000000E+000
 -8.949645729622181E-004  0.000000000000000E+000  0.000000000000000E+000
  0.000000000000000E+000  0.000000000000000E+000  0.000000000000000E+000
  7.480457292745978E-003  0.000000000000000E+000  0.000000000000000E+000
  0.000000000000000E+000  6.592019440194889E-003  0.000000000000000E+000
  0.000000000000000E+000  0.000000000000000E+000  6.668901999676602E-003
  0.000000000000000E+000  0.000000000000000E+000  0.000000000000000E+000
  0.000000000000000E+000  0.000000000000000E+000 -8.949645729622181E-004
  0.000000000000000E+000 -8.949645729622181E-004  0.000000000000000E+000
  0.000000000000000E+000  0.000000000000000E+000 -8.949645729622181E-004
  0.000000000000000E+000  0.000000000000000E+000  0.000000000000000E+000
 -8.949645729622181E-004  0.000000000000000E+000  0.000000000000000E+000
  0.000000000000000E+000  0.000000000000000E+000  0.000000000000000E+000
  0.000000000000000E+000  0.000000000000000E+000 -8.949645729622181E-004
  0.000000000000000E+000 -8.949645729622181E-004  0.000000000000000E+000
  6.001448660827543E-003  0.000000000000000E+000  0.000000000000000E+000
  0.000000000000000E+000  6.668901999676602E-003  0.000000000000000E+000
  0.000000000000000E+000  0.000000000000000E+000  3.611854108983654E-003
 dShat/dC
 -6.092625463123135E-004  0.000000000000000E+000  0.000000000000000E+000
  0.000000000000000E+000  2.833320879132020E-004  0.000000000000000E+000
  0.000000000000000E+000  0.000000000000000E+000  2.870234546245528E-004
  0.000000000000000E+000 -4.474822864811090E-004  0.000000000000000E+000
 -4.474822864811090E-004  0.000000000000000E+000  0.000000000000000E+000
  0.000000000000000E+000  0.000000000000000E+000  0.000000000000000E+000
  0.000000000000000E+000  0.000000000000000E+000 -4.474822864811090E-004
  0.000000000000000E+000  0.000000000000000E+000  0.000000000000000E+000
 -4.474822864811090E-004  0.000000000000000E+000  0.000000000000000E+000
  0.000000000000000E+000 -4.474822864811090E-004  0.000000000000000E+000
 -4.474822864811090E-004  0.000000000000000E+000  0.000000000000000E+000
  0.000000000000000E+000  0.000000000000000E+000  0.000000000000000E+000
  6.743832940818023E-004  0.000000000000000E+000  0.000000000000000E+000
  0.000000000000000E+000 -1.608868383623429E-004  0.000000000000000E+000
  0.000000000000000E+000  0.000000000000000E+000  6.207501240490815E-004
  0.000000000000000E+000  0.000000000000000E+000  0.000000000000000E+000
  0.000000000000000E+000  0.000000000000000E+000 -4.474822864811090E-004
  0.000000000000000E+000 -4.474822864811090E-004  0.000000000000000E+000
  0.000000000000000E+000  0.000000000000000E+000 -4.474822864811090E-004
  0.000000000000000E+000  0.000000000000000E+000  0.000000000000000E+000
 -4.474822864811090E-004  0.000000000000000E+000  0.000000000000000E+000
  0.000000000000000E+000  0.000000000000000E+000  0.000000000000000E+000
  0.000000000000000E+000  0.000000000000000E+000 -4.474822864811090E-004
  0.000000000000000E+000 -4.474822864811090E-004  0.000000000000000E+000
 -6.512102187741526E-005  0.000000000000000E+000  0.000000000000000E+000
  0.000000000000000E+000 -1.224455586214868E-004  0.000000000000000E+000
  0.000000000000000E+000  0.000000000000000E+000 -9.077738212973922E-004
 CCvol
   20.0000000000000       0.000000000000000E+000  0.000000000000000E+000
  0.000000000000000E+000   20.0000000000000       0.000000000000000E+000
  0.000000000000000E+000  0.000000000000000E+000   20.0000000000000     
  0.000000000000000E+000  0.000000000000000E+000  0.000000000000000E+000
  0.000000000000000E+000  0.000000000000000E+000  0.000000000000000E+000
  0.000000000000000E+000  0.000000000000000E+000  0.000000000000000E+000
  0.000000000000000E+000  0.000000000000000E+000  0.000000000000000E+000
  0.000000000000000E+000  0.000000000000000E+000  0.000000000000000E+000
  0.000000000000000E+000  0.000000000000000E+000  0.000000000000000E+000
  0.000000000000000E+000  0.000000000000000E+000  0.000000000000000E+000
  0.000000000000000E+000  0.000000000000000E+000  0.000000000000000E+000
  0.000000000000000E+000  0.000000000000000E+000  0.000000000000000E+000
   20.0000000000000       0.000000000000000E+000  0.000000000000000E+000
  0.000000000000000E+000   20.0000000000000       0.000000000000000E+000
  0.000000000000000E+000  0.000000000000000E+000   20.0000000000000     
  0.000000000000000E+000  0.000000000000000E+000  0.000000000000000E+000
  0.000000000000000E+000  0.000000000000000E+000  0.000000000000000E+000
  0.000000000000000E+000  0.000000000000000E+000  0.000000000000000E+000
  0.000000000000000E+000  0.000000000000000E+000  0.000000000000000E+000
  0.000000000000000E+000  0.000000000000000E+000  0.000000000000000E+000
  0.000000000000000E+000  0.000000000000000E+000  0.000000000000000E+000
  0.000000000000000E+000  0.000000000000000E+000  0.000000000000000E+000
  0.000000000000000E+000  0.000000000000000E+000  0.000000000000000E+000
  0.000000000000000E+000  0.000000000000000E+000  0.000000000000000E+000
   20.0000000000000       0.000000000000000E+000  0.000000000000000E+000
  0.000000000000000E+000   20.0000000000000       0.000000000000000E+000
  0.000000000000000E+000  0.000000000000000E+000   20.0000000000000     
 CCiso
  2.930841504825026E-003  0.000000000000000E+000  0.000000000000000E+000
  0.000000000000000E+000 -1.764499419532586E-003  0.000000000000000E+000
  0.000000000000000E+000  0.000000000000000E+000 -1.137723039199551E-003
  0.000000000000000E+000  2.183297396640736E-003  0.000000000000000E+000
  2.183297396640736E-003  0.000000000000000E+000  0.000000000000000E+000
  0.000000000000000E+000  0.000000000000000E+000  0.000000000000000E+000
  0.000000000000000E+000  0.000000000000000E+000  2.183297396640736E-003
  0.000000000000000E+000  0.000000000000000E+000  0.000000000000000E+000
  2.183297396640736E-003  0.000000000000000E+000  0.000000000000000E+000
  0.000000000000000E+000  2.183297396640736E-003  0.000000000000000E+000
  2.183297396640736E-003  0.000000000000000E+000  0.000000000000000E+000
  0.000000000000000E+000  0.000000000000000E+000  0.000000000000000E+000
 -1.764499419532586E-003  0.000000000000000E+000  0.000000000000000E+000
  0.000000000000000E+000  2.397478001182296E-003  0.000000000000000E+000
  0.000000000000000E+000  0.000000000000000E+000 -1.576378366290431E-003
  0.000000000000000E+000  0.000000000000000E+000  0.000000000000000E+000
  0.000000000000000E+000  0.000000000000000E+000  2.183297396640736E-003
  0.000000000000000E+000  2.183297396640736E-003  0.000000000000000E+000
  0.000000000000000E+000  0.000000000000000E+000  2.183297396640736E-003
  0.000000000000000E+000  0.000000000000000E+000  0.000000000000000E+000
  2.183297396640736E-003  0.000000000000000E+000  0.000000000000000E+000
  0.000000000000000E+000  0.000000000000000E+000  0.000000000000000E+000
  0.000000000000000E+000  0.000000000000000E+000  2.183297396640736E-003
  0.000000000000000E+000  2.183297396640736E-003  0.000000000000000E+000
 -1.137723039199552E-003  0.000000000000000E+000  0.000000000000000E+000
  0.000000000000000E+000 -1.576378366290431E-003  0.000000000000000E+000
  0.000000000000000E+000  0.000000000000000E+000  3.628882694473997E-003
 CC_ref
   20.0029308415048       0.000000000000000E+000  0.000000000000000E+000
  0.000000000000000E+000   19.9982355005805       0.000000000000000E+000
  0.000000000000000E+000  0.000000000000000E+000   19.9988622769608     
  0.000000000000000E+000  2.183297396640736E-003  0.000000000000000E+000
  2.183297396640736E-003  0.000000000000000E+000  0.000000000000000E+000
  0.000000000000000E+000  0.000000000000000E+000  0.000000000000000E+000
  0.000000000000000E+000  0.000000000000000E+000  2.183297396640736E-003
  0.000000000000000E+000  0.000000000000000E+000  0.000000000000000E+000
  2.183297396640736E-003  0.000000000000000E+000  0.000000000000000E+000
  0.000000000000000E+000  2.183297396640736E-003  0.000000000000000E+000
  2.183297396640736E-003  0.000000000000000E+000  0.000000000000000E+000
  0.000000000000000E+000  0.000000000000000E+000  0.000000000000000E+000
   19.9982355005805       0.000000000000000E+000  0.000000000000000E+000
  0.000000000000000E+000   20.0023974780012       0.000000000000000E+000
  0.000000000000000E+000  0.000000000000000E+000   19.9984236216337     
  0.000000000000000E+000  0.000000000000000E+000  0.000000000000000E+000
  0.000000000000000E+000  0.000000000000000E+000  2.183297396640736E-003
  0.000000000000000E+000  2.183297396640736E-003  0.000000000000000E+000
  0.000000000000000E+000  0.000000000000000E+000  2.183297396640736E-003
  0.000000000000000E+000  0.000000000000000E+000  0.000000000000000E+000
  2.183297396640736E-003  0.000000000000000E+000  0.000000000000000E+000
  0.000000000000000E+000  0.000000000000000E+000  0.000000000000000E+000
  0.000000000000000E+000  0.000000000000000E+000  2.183297396640736E-003
  0.000000000000000E+000  2.183297396640736E-003  0.000000000000000E+000
   19.9988622769608       0.000000000000000E+000  0.000000000000000E+000
  0.000000000000000E+000   19.9984236216337       0.000000000000000E+000
  0.000000000000000E+000  0.000000000000000E+000   20.0036288826945     
 DDSDDE
   20.0029022224619        19.9982355005805        19.9988622769608     
  0.000000000000000E+000  0.000000000000000E+000  0.000000000000000E+000
   19.9982355005805        20.0033408776901        19.9984236216337     
  0.000000000000000E+000  0.000000000000000E+000  0.000000000000000E+000
   19.9988622769608        19.9984236216337        20.0027141014980     
  0.000000000000000E+000  0.000000000000000E+000  0.000000000000000E+000
  0.000000000000000E+000  0.000000000000000E+000  0.000000000000000E+000
  2.411992558140216E-003  0.000000000000000E+000  0.000000000000000E+000
  0.000000000000000E+000  0.000000000000000E+000  0.000000000000000E+000
  0.000000000000000E+000  1.947447336801993E-003  0.000000000000000E+000
  0.000000000000000E+000  0.000000000000000E+000  0.000000000000000E+000
  0.000000000000000E+000  0.000000000000000E+000  2.190452019761941E-003

  NUMBER OF EQUATIONS =      3888     NUMBER OF RHS =    1
  NUMBER OF FLOATING PT. OPERATIONS =  1.46E+08

     CHECK POINT   START OF SOLVER    

     CHECK POINT  END OF SOLVER       

       ELAPSED USER TIME (SEC)      =  8.00000E-02
       ELAPSED SYSTEM TIME (SEC)    =  2.00000E-02
       ELAPSED TOTAL CPU TIME (SEC) =  0.10000    
       ELAPSED WALLCLOCK TIME (SEC) =          0
 ***************************************************
 deformation gradient
   1.01999999999975       5.170863737191037E-013 -6.678754771448933E-013
 -1.182505482422014E-012  0.891140442011085       4.028253425269532E-013
 -3.095371181593598E-013 -1.442346242441596E-012   1.08886292589953     
 J
  0.989736384856864     
 C
   1.04039999999949      -7.453590124364766E-013 -1.042952706703752E-012
 -7.453590124364766E-013  0.794131287387712      -8.467114869316853E-013
 -1.042952706703752E-012 -8.467114869316853E-013   1.18562247139850     
 Chat
   1.04758029200244      -7.505030871734279E-013 -1.050150616141852E-012
 -7.505030871734279E-013  0.799611962639656      -8.525550429855311E-013
 -1.050150616141852E-012 -8.525550429855311E-013   1.19380501229613     
 I1hat, I2hat, I4ahat, I4shat
   3.04099726693822        3.04284510557701        1.04758029200244     
  0.799611962639656     
 S^hat
  2.987296185469163E-003  6.561184275590099E-016  9.180817277622957E-016
  6.561184275590099E-016  3.678837567446653E-003  7.453361402121838E-016
  9.180817277622957E-016  7.453361402121838E-016  2.426560698207680E-003
 S_iso
  1.346860507429704E-004 -2.036118498065762E-015 -1.603064403841226E-015
 -2.036118498065762E-015 -6.001868494176239E-005 -1.937753429794653E-015
 -1.603064403841226E-015 -1.937753429794653E-015 -7.798850068052371E-005
 S
 -0.195141618204050      -1.853193559216054E-013 -1.733811430004509E-013
 -1.853193559216054E-013 -0.255893619719474      -1.846411467652110E-013
 -1.733811430004509E-013 -1.846411467652110E-013 -0.171435627080982     
 sigma
 -0.205130722367811      -1.734273196471785E-015 -1.865036829353067E-015
 -1.734273196471802E-015 -0.205320459842968      -1.797774392530767E-015
 -1.865036829353105E-015 -1.797774392530767E-015 -0.205365726647404     
 Psi24a
  4.812703781538207E-005
 CChat
  4.667459129272063E-003  1.025693691620691E-015  1.435214432341666E-015
  1.025693691620691E-015  7.518793072648198E-003  1.165165532687001E-015
  1.435214432341666E-015  1.165165532687001E-015  5.572254952881544E-003
  1.025693691620691E-015 -8.863468473974518E-004  3.154508089796632E-028
 -8.863468473974518E-004  1.262949163671622E-015  2.560958150912988E-028
  3.154508089796632E-028  2.560958150912988E-028  8.352295174477214E-016
  1.435214432341666E-015  3.154508089796632E-028 -8.863468473974518E-004
  3.154508089796632E-028  1.767197050955115E-015  3.583451988483695E-028
 -8.863468473974518E-004  3.583451988483695E-028  1.168705109090245E-015
  1.025693691620691E-015 -8.863468473974518E-004  3.154508089796632E-028
 -8.863468473974518E-004  1.262949163671622E-015  2.560958150912988E-028
  3.154508089796632E-028  2.560958150912988E-028  8.352295174477214E-016
  7.518793072648198E-003  1.262949163671622E-015  1.767197050955115E-015
  1.262949163671622E-015  7.075236163484286E-003  1.434682544182242E-015
  1.767197050955115E-015  1.434682544182242E-015  6.451434220833109E-003
  1.165165532687001E-015  2.560958150912988E-028  3.583451988483695E-028
  2.560958150912988E-028  1.434682544182242E-015 -8.863468473974518E-004
  3.583451988483695E-028 -8.863468473974518E-004  9.488024091043848E-016
  1.435214432341666E-015  3.154508089796632E-028 -8.863468473974518E-004
  3.154508089796632E-028  1.767197050955115E-015  3.583451988483695E-028
 -8.863468473974518E-004  3.583451988483695E-028  1.168705109090245E-015
  1.165165532687001E-015  2.560958150912988E-028  3.583451988483695E-028
  2.560958150912988E-028  1.434682544182242E-015 -8.863468473974518E-004
  3.583451988483695E-028 -8.863468473974518E-004  9.488024091043848E-016
  5.572254952881544E-003  8.352295174477214E-016  1.168705109090245E-015
  8.352295174477214E-016  6.451434220833109E-003  9.488024091043848E-016
  1.168705109090245E-015  9.488024091043848E-016  3.094652090715303E-003
 dShat/dC
 -4.558840813336805E-004 -1.877730769482012E-016 -2.627437725735001E-016
 -1.877730769482012E-016  3.782482079772757E-004 -2.133060961708022E-016
 -2.627437725735001E-016 -2.133060961708022E-016  4.458485377105564E-004
 -2.093941969807164E-015 -4.401358383084742E-004 -7.588810176009321E-028
 -4.401358383084742E-004 -2.522160764811309E-015 -6.160905194329500E-028
 -7.588810176009321E-028 -6.160905194329500E-028 -1.763872528578402E-015
 -1.727170896996064E-015 -4.565755956184380E-028 -4.401358383084742E-004
 -4.565755956184380E-028 -2.074074837573023E-015 -5.186598605671982E-028
 -4.401358383084742E-004 -5.186598605671982E-028 -1.461519710786870E-015
 -2.093941969807164E-015 -4.401358383084742E-004 -7.588810176009321E-028
 -4.401358383084742E-004 -2.522160764811309E-015 -6.160905194329500E-028
 -7.588810176009321E-028 -6.160905194329500E-028 -1.763872528578402E-015
  9.988218890494152E-005 -2.861381785475277E-016 -4.003823430428554E-016
 -2.861381785475277E-016 -8.825500613546099E-004 -3.250466937186853E-016
 -4.003823430428554E-016 -3.250466937186853E-016  1.626013648552500E-004
 -2.016448183215294E-015 -5.250512824121711E-028 -7.346844232284900E-028
 -5.250512824121711E-028 -2.426919312611476E-015 -4.401358383084742E-004
 -7.346844232284900E-028 -4.401358383084742E-004 -1.700582899128593E-015
 -1.727170896996064E-015 -4.565755956184380E-028 -4.401358383084742E-004
 -4.565755956184380E-028 -2.074074837573023E-015 -5.186598605671982E-028
 -4.401358383084742E-004 -5.186598605671982E-028 -1.461519710786870E-015
 -2.016448183215294E-015 -5.250512824121711E-028 -7.346844232284900E-028
 -5.250512824121711E-028 -2.426919312611476E-015 -4.401358383084742E-004
 -7.346844232284900E-028 -4.401358383084742E-004 -1.700582899128593E-015
  3.331431197420450E-004 -1.969666640764755E-016 -2.756080117116398E-016
 -1.969666640764755E-016  2.592147805292359E-004 -2.237498094656494E-016
 -2.756080117116398E-016 -2.237498094656494E-016 -5.001489766400537E-004
 CCvol
   18.2872686424585       1.716413987459774E-011  1.608670279873165E-011
  1.716413987459774E-011   23.4665501574637       1.675862094074863E-011
  1.608670279873165E-011  1.675862094074863E-011   15.7179221351241     
  1.716413987459774E-011  0.245899270506207       1.756087979152761E-013
  0.245899270506207       2.248692553628641E-011  2.163094205421552E-013
  1.756087979152761E-013  2.163094205421552E-013  1.475259205406642E-011
  1.608670279873165E-011  1.756087979152761E-013  0.164703612630129     
  1.756087979152761E-013  2.064274471356500E-011  1.545881946932149E-013
  0.164703612630129       1.545881946932149E-013  1.411630261363943E-011
  1.716413987459774E-011  0.245899270506207       1.756087979152761E-013
  0.245899270506207       2.248692553628641E-011  2.163094205421552E-013
  1.756087979152761E-013  2.163094205421552E-013  1.475259205406642E-011
   23.4665501574637       2.248692553628641E-011  2.064274471356500E-011
  2.248692553628641E-011   31.3880920973119       2.241578476522859E-011
  2.064274471356500E-011  2.241578476522859E-011   20.5922200133531     
  1.675862094074863E-011  2.163094205421552E-013  1.545881946932149E-013
  2.163094205421552E-013  2.241578476522859E-011  0.215779986636695     
  1.545881946932149E-013  0.215779986636695       1.501411827360160E-011
  1.608670279873165E-011  1.756087979152761E-013  0.164703612630129     
  1.756087979152761E-013  2.064274471356500E-011  1.545881946932149E-013
  0.164703612630129       1.545881946932149E-013  1.411630261363943E-011
  1.675862094074863E-011  2.163094205421552E-013  1.545881946932149E-013
  2.163094205421552E-013  2.241578476522859E-011  0.215779986636695     
  1.545881946932149E-013  0.215779986636695       1.501411827360160E-011
   15.7179221351241       1.475259205406642E-011  1.411630261363943E-011
  1.475259205406642E-011   20.5922200133531       1.501411827360160E-011
  1.411630261363943E-011  1.501411827360160E-011   14.0817518808010     
 CCiso
  2.439696119930135E-003  4.159105225511000E-015  3.527722083054647E-015
  4.159105225511000E-015 -2.075191598940636E-003 -1.241326224991746E-015
  3.527722083054647E-015 -1.241326224991746E-015 -9.781000524940980E-004
  4.159105225511000E-015  2.807387699135150E-003  2.637878030891779E-015
  2.807387699135150E-003  6.036432111278273E-015  3.249255590286304E-015
  2.637878030891779E-015  3.249255590286304E-015 -7.283868213296011E-016
  3.527722083054647E-015  2.637878030891779E-015  1.587720776545632E-003
  2.637878030891779E-015 -1.363485715360359E-015  2.322120573985475E-015
  1.587720776545632E-003  2.322120573985475E-015  3.315143921900939E-015
  4.159105225511000E-015  2.807387699135150E-003  2.637878030891779E-015
  2.807387699135150E-003  6.036432111278273E-015  3.249255590286304E-015
  2.637878030891779E-015  3.249255590286304E-015 -7.283868213296011E-016
 -2.075191598940636E-003  6.036432111278272E-015 -1.363485715360358E-015
  6.036432111278272E-015  5.117387264910043E-003  5.859988867185514E-015
 -1.363485715360358E-015  5.859988867185514E-015 -1.505378522454393E-003
 -1.241326224991745E-015  3.249255590286304E-015  2.322120573985475E-015
  3.249255590286304E-015  5.859988867185512E-015  2.354955940730112E-003
  2.322120573985475E-015  2.354955940730112E-003  3.796587186866727E-015
  3.527722083054647E-015  2.637878030891779E-015  1.587720776545632E-003
  2.637878030891779E-015 -1.363485715360359E-015  2.322120573985475E-015
  1.587720776545632E-003  2.322120573985475E-015  3.315143921900939E-015
 -1.241326224991745E-015  3.249255590286304E-015  2.322120573985475E-015
  3.249255590286304E-015  5.859988867185512E-015  2.354955940730112E-003
  2.322120573985475E-015  2.354955940730112E-003  3.796587186866727E-015
 -9.781000524940972E-004 -7.283868213296016E-016  3.315143921900938E-015
 -7.283868213296016E-016 -1.505378522454393E-003  3.796587186866725E-015
  3.315143921900938E-015  3.796587186866725E-015  1.998157542646911E-003
 CC_ref
   18.2897083385785       1.716829897982325E-011  1.609023052081471E-011
  1.716829897982325E-011   23.4644749658648       1.675737961452364E-011
  1.609023052081471E-011  1.675737961452364E-011   15.7169440350716     
  1.716829897982325E-011  0.248706658205342       1.782466759461679E-013
  0.248706658205342       2.249296196839769E-011  2.195586761324416E-013
  1.782466759461679E-013  2.195586761324416E-013  1.475186366724509E-011
  1.609023052081471E-011  1.782466759461679E-013  0.166291333406674     
  1.782466759461679E-013  2.064138122784963E-011  1.569103152672004E-013
  0.166291333406674       1.569103152672004E-013  1.411961775756133E-011
  1.716829897982325E-011  0.248706658205342       1.782466759461679E-013
  0.248706658205342       2.249296196839769E-011  2.195586761324416E-013
  1.782466759461679E-013  2.195586761324416E-013  1.475186366724509E-011
   23.4644749658648       2.249296196839769E-011  2.064138122784963E-011
  2.249296196839769E-011   31.3932094845768       2.242164475409577E-011
  2.064138122784963E-011  2.242164475409577E-011   20.5907146348307     
  1.675737961452364E-011  2.195586761324416E-013  1.569103152672004E-013
  2.195586761324416E-013  2.242164475409577E-011  0.218134942577425     
  1.569103152672004E-013  0.218134942577425       1.501791486078847E-011
  1.609023052081471E-011  1.782466759461679E-013  0.166291333406674     
  1.782466759461679E-013  2.064138122784963E-011  1.569103152672004E-013
  0.166291333406674       1.569103152672004E-013  1.411961775756133E-011
  1.675737961452364E-011  2.195586761324416E-013  1.569103152672004E-013
  2.195586761324416E-013  2.242164475409577E-011  0.218134942577425     
  1.569103152672004E-013  0.218134942577425       1.501791486078847E-011
   15.7169440350716       1.475186366724509E-011  1.411961775756133E-011
  1.475186366724509E-011   20.5907146348307       1.501791486078847E-011
  1.411961775756133E-011  1.501791486078847E-011   14.0837500383437     
 DDSDDE
   19.5924067460890        19.5877230615291        19.5882363751711     
 -3.285171601933380E-016 -2.720347689862768E-016 -4.344694955083152E-016
   19.5877230615290        19.5926197992192        19.5880233220940     
 -1.606893661927170E-016  3.263424846584679E-016  2.004031639828740E-016
   19.5882363751711        19.5880233220940        19.5921064855633     
  4.892069021527061E-016 -5.430730387155339E-017  2.340667552425626E-016
 -3.285171601842020E-016 -1.606893661919658E-016  4.892069021538029E-016
  2.390268681442403E-003  2.299296608229293E-016 -2.083456506419297E-016
 -2.720347689810739E-016  3.263424846549632E-016 -5.430730387559591E-017
  2.299296608228084E-016  2.002875874482196E-003 -3.082733996308076E-016
 -4.344694955136712E-016  2.004031639804254E-016  2.340667552425626E-016
 -2.083456506419512E-016 -3.082733996307859E-016  2.169487952089988E-003

               CONVERGENCE CHECKS FOR EQUILIBRIUM ITERATION     1


 AVERAGE FORCE                      0.483       TIME AVG. FORCE       0.483    
 LARGEST RESIDUAL FORCE              2.24       AT NODE        379   DOF  2
   INSTANCE: PART-1-1                                                                        
 LARGEST INCREMENT OF DISP.         -5.44       AT NODE         73   DOF  2
   INSTANCE: PART-1-1                                                                        
 LARGEST CORRECTION TO DISP.        -5.44       AT NODE         73   DOF  2
   INSTANCE: PART-1-1                                                                        
          FORCE     EQUILIBRIUM NOT ACHIEVED WITHIN TOLERANCE.

  NUMBER OF EQUATIONS =      3888     NUMBER OF RHS =    1
  NUMBER OF FLOATING PT. OPERATIONS =  1.46E+08

     CHECK POINT   START OF SOLVER    

     CHECK POINT  END OF SOLVER       

       ELAPSED USER TIME (SEC)      =  4.00000E-02
       ELAPSED SYSTEM TIME (SEC)    =  1.00000E-02
       ELAPSED TOTAL CPU TIME (SEC) =  5.00000E-02
       ELAPSED WALLCLOCK TIME (SEC) =          0
 

 ***WARNING: THE SYSTEM MATRIX HAS 391 NEGATIVE EIGENVALUES.

     NEGATIVE EIGENVALUES MEAN THAT THE SYSTEM MATRIX IS NOT 
     POSITIVE DEFINITE:
     FOR EXAMPLE, A BIFURCATION (BUCKLING) LOAD MAY HAVE BEEN EXCEEDED.
 ***************************************************
 deformation gradient
   1.01999999999989       5.105915690249836E-013 -6.969563814960779E-013
 -9.587122762331057E-013  0.895685153748907       6.847942352060075E-013
 -1.635705459967648E-013 -1.180611164386100E-012   1.09466373708891     
 J
   1.00008353881088     
 C
   1.04039999999977      -5.205572337530999E-013 -9.297748340737425E-013
 -5.205572337530999E-013  0.802251894646202      -3.078364756431352E-013
 -9.297748340737425E-013 -3.078364756431352E-013   1.19828869729745     
 Chat
   1.04034206151223      -5.205282446154577E-013 -9.297230561540567E-013
 -5.205282446154577E-013  0.802207218308828      -3.078193326406273E-013
 -9.297230561540567E-013 -3.078193326406273E-013   1.19822196619906     
 I1hat, I2hat, I4ahat, I4shat
   3.04077124602012        3.04235293214126        1.04034206151223     
  0.802207218308828     
 S^hat
  2.992367184908732E-003  4.549051221109274E-016  8.125126441535391E-016
  4.549051221109274E-016  3.675074044012332E-003  2.690124744459072E-016
  8.125126441535391E-016  2.690124744459072E-016  2.421647514297935E-003
 S_iso
  1.205717201184662E-004 -1.408434173667687E-015 -1.415683648697179E-015
 -1.408434173667687E-015 -4.920113330435650E-005 -6.877041308196141E-016
 -1.415683648697179E-015 -6.877041308196141E-016 -7.174513329635552E-005
 S
  1.726603815646276E-003 -3.663280340047456E-016 -1.695330102871032E-016
 -3.663280340047456E-016  2.033580849932529E-003 -1.526442018562038E-016
 -1.695330102871032E-016 -1.526442018562038E-016  1.322673253487440E-003
 sigma
  1.796208556671081E-003 -1.181601752218527E-015 -1.653420967466503E-015
 -1.181601752218527E-015  1.631307812259797E-003 -6.116815511988864E-016
 -1.653420967466503E-015 -6.116815511988864E-016  1.584812016560318E-003
 Psi24a
  4.808172206684196E-005
 CChat
  4.617870260723156E-003  7.023952591419937E-016  1.254558371640420E-015
  7.023952591419937E-016  7.417273035236307E-003  4.153681229704560E-016
  1.254558371640420E-015  4.153681229704560E-016  5.492908788719574E-003
  7.023952591419937E-016 -8.738324233287216E-004  1.908570247912485E-028
 -8.738324233287216E-004  8.625180428299749E-016  6.319030340502051E-029
  1.908570247912485E-028  6.319030340502051E-029  5.698426062286779E-016
  1.254558371640420E-015  1.908570247912485E-028 -8.738324233287216E-004
  1.908570247912485E-028  1.540556000684091E-015  1.128651184805912E-028
 -8.738324233287216E-004  1.128651184805912E-028  1.017804153511608E-015
  7.023952591419937E-016 -8.738324233287216E-004  1.908570247912485E-028
 -8.738324233287216E-004  8.625180428299749E-016  6.319030340502051E-029
  1.908570247912485E-028  6.319030340502051E-029  5.698426062286779E-016
  7.417273035236307E-003  8.625180428299749E-016  1.540556000684091E-015
  8.625180428299749E-016  6.962084283584320E-003  5.100582553989205E-016
  1.540556000684091E-015  5.100582553989205E-016  6.346988485147280E-003
  4.153681229704560E-016  6.319030340502051E-029  1.128651184805912E-028
  6.319030340502051E-029  5.100582553989205E-016 -8.738324233287216E-004
  1.128651184805912E-028 -8.738324233287216E-004  3.369818498304376E-016
  1.254558371640420E-015  1.908570247912485E-028 -8.738324233287216E-004
  1.908570247912485E-028  1.540556000684091E-015  1.128651184805912E-028
 -8.738324233287216E-004  1.128651184805912E-028  1.017804153511608E-015
  4.153681229704560E-016  6.319030340502051E-029  1.128651184805912E-028
  6.319030340502051E-029  5.100582553989205E-016 -8.738324233287216E-004
  1.128651184805912E-028 -8.738324233287216E-004  3.369818498304376E-016
  5.492908788719574E-003  5.698426062286779E-016  1.017804153511608E-015
  5.698426062286779E-016  6.346988485147280E-003  3.369818498304376E-016
  1.017804153511608E-015  3.369818498304376E-016  3.039091783574352E-003
 dShat/dC
 -4.683952917624405E-004 -1.318489901064807E-016 -2.354973957718316E-016
 -1.318489901064807E-016  3.593355366429177E-004 -7.797015544065316E-017
 -2.354973957718316E-016 -7.797015544065316E-017  4.319174440946488E-004
 -1.450992802233291E-015 -4.369405443001574E-004 -4.644187317424646E-028
 -4.369405443001574E-004 -1.742112102187155E-015 -1.537630621554509E-028
 -4.644187317424646E-028 -1.537630621554509E-028 -1.216995803121482E-015
 -1.527768788327024E-015 -2.793863452967135E-028 -4.369405443001574E-004
 -2.793863452967135E-028 -1.828625254517935E-015 -1.652177749195367E-028
 -4.369405443001574E-004 -1.652177749195367E-028 -1.287081199956584E-015
 -1.450992802233291E-015 -4.369405443001574E-004 -4.644187317424646E-028
 -4.369405443001574E-004 -1.742112102187155E-015 -1.537630621554509E-028
 -4.644187317424646E-028 -1.537630621554509E-028 -1.216995803121482E-015
  1.068966194689965E-004 -1.951811120547011E-016 -3.486158184117401E-016
 -1.951811120547011E-016 -8.625712790594224E-004 -1.154222086471375E-016
 -3.486158184117401E-016 -1.154222086471375E-016  1.718664428692115E-004
 -7.176327172512875E-016 -1.293396950615232E-028 -2.310155074552551E-028
 -1.293396950615232E-028 -8.608666573187614E-016 -4.369405443001574E-004
 -2.310155074552551E-028 -4.369405443001574E-004 -6.026535306553212E-016
 -1.527768788327024E-015 -2.793863452967135E-028 -4.369405443001574E-004
 -2.793863452967135E-028 -1.828625254517935E-015 -1.652177749195367E-028
 -4.369405443001574E-004 -1.652177749195367E-028 -1.287081199956584E-015
 -7.176327172512875E-016 -1.293396950615232E-028 -2.310155074552551E-028
 -1.293396950615232E-028 -8.608666573187614E-016 -4.369405443001574E-004
 -2.310155074552551E-028 -4.369405443001574E-004 -6.026535306553212E-016
  3.351113872628849E-004 -1.344793296948482E-016 -2.401954835050470E-016
 -1.344793296948482E-016  2.655006591644232E-004 -7.952563179584624E-017
 -2.401954835050470E-016 -7.952563179584624E-017 -4.900716370675104E-004
 CCvol
   18.4784520595049       1.199011426751647E-011  1.433777998266863E-011
  1.199011426751647E-011   23.9677758509694       6.157243795771818E-012
  1.433777998266863E-011  6.157243795771818E-012   16.0463781643454     
  1.199011426751647E-011 -2.001905020412671E-003 -5.142828905070239E-016
 -2.001905020412671E-003  1.554937416436109E-011 -1.553315914267432E-015
 -5.142828905070239E-016 -1.553315914267432E-015  1.041201433706227E-011
  1.433777998266863E-011 -5.142828905070239E-016 -1.340271421361113E-003
 -5.142828905070239E-016  1.859704999739711E-011 -8.696619907113152E-016
 -1.340271421361113E-003 -8.696619907113152E-016  1.244860802543506E-011
  1.199011426751647E-011 -2.001905020412671E-003 -5.142828905070239E-016
 -2.001905020412671E-003  1.554937416436109E-011 -1.553315914267432E-015
 -5.142828905070239E-016 -1.553315914267432E-015  1.041201433706227E-011
   23.9677758509694       1.554937416436109E-011  1.859704999739711E-011
  1.554937416436109E-011   31.0774067319239       7.983684885015167E-012
  1.859704999739711E-011  7.983684885015167E-012   20.8097381303708     
  6.157243795771818E-012 -1.553315914267432E-015 -8.696619907113152E-016
 -1.553315914267432E-015  7.983684885015167E-012 -1.738130375371368E-003
 -8.696619907113152E-016 -1.738130375371368E-003  5.345061118999920E-012
  1.433777998266863E-011 -5.142828905070239E-016 -1.340271421361113E-003
 -5.142828905070239E-016  1.859704999739711E-011 -8.696619907113152E-016
 -1.340271421361113E-003 -8.696619907113152E-016  1.244860802543506E-011
  6.157243795771818E-012 -1.553315914267432E-015 -8.696619907113152E-016
 -1.553315914267432E-015  7.983684885015167E-012 -1.738130375371368E-003
 -8.696619907113152E-016 -1.738130375371368E-003  5.345061118999920E-012
   16.0463781643454       1.041201433706227E-011  1.244860802543506E-011
  1.041201433706227E-011   20.8097381303708       5.345061118999920E-012
  1.244860802543506E-011  5.345061118999920E-012   13.9297508547427     
 CCiso
  2.436405239162206E-003  2.877675561147277E-015  3.113405335269403E-015
  2.877675561147277E-015 -2.034472180762846E-003 -4.306276009957614E-016
  3.113405335269403E-015 -4.306276009957614E-016 -9.545448610079995E-004
  2.877675561147276E-015  2.755809822489120E-003  9.324433079632525E-016
  2.755809822489120E-003  4.096581281703644E-015  2.816307976922290E-015
  9.324433079632525E-016  2.816307976922290E-015 -4.960754543354232E-016
  3.113405335269400E-015  9.324433079632525E-016  1.556205826353979E-003
  9.324433079632525E-016 -1.187487519230320E-015  1.576779061056111E-015
  1.556205826353979E-003  1.576779061056111E-015  2.869664749957577E-015
  2.877675561147276E-015  2.755809822489120E-003  9.324433079632525E-016
  2.755809822489120E-003  4.096581281703644E-015  2.816307976922290E-015
  9.324433079632525E-016  2.816307976922290E-015 -4.960754543354232E-016
 -2.034472180762846E-003  4.096581281703644E-015 -1.187487519230320E-015
  4.096581281703644E-015  4.944329649803863E-003  2.043484226116114E-015
 -1.187487519230320E-015  2.043484226116114E-015 -1.461693402954859E-003
 -4.306276009957616E-016  2.816307976922290E-015  1.576779061056111E-015
  2.816307976922290E-015  2.043484226116114E-015  2.277561561330277E-003
  1.576779061056111E-015  2.277561561330277E-003  1.323785603818837E-015
  3.113405335269400E-015  9.324433079632525E-016  1.556205826353979E-003
  9.324433079632525E-016 -1.187487519230320E-015  1.576779061056111E-015
  1.556205826353979E-003  1.576779061056111E-015  2.869664749957577E-015
 -4.306276009957616E-016  2.816307976922290E-015  1.576779061056111E-015
  2.816307976922290E-015  2.043484226116114E-015  2.277561561330277E-003
  1.576779061056111E-015  2.277561561330277E-003  1.323785603818837E-015
 -9.545448610079996E-004 -4.960754543354233E-016  2.869664749957579E-015
 -4.960754543354233E-016 -1.461693402954860E-003  1.323785603818836E-015
  2.869664749957579E-015  1.323785603818836E-015  1.927119108128449E-003
 CC_ref
   18.4808884647440       1.199299194307762E-011  1.434089338800390E-011
  1.199299194307762E-011   23.9657413787887       6.156813168170822E-012
  1.434089338800390E-011  6.156813168170822E-012   16.0454236194844     
  1.199299194307762E-011  7.539048020764488E-004  4.181604174562286E-016
  7.539048020764488E-004  1.555347074564279E-011  1.262992062654858E-015
  4.181604174562286E-016  1.262992062654858E-015  1.041151826160793E-011
  1.434089338800390E-011  4.181604174562286E-016  2.159344049928664E-004
  4.181604174562286E-016  1.859586250987788E-011  7.071170703447959E-016
  2.159344049928664E-004  7.071170703447959E-016  1.245147769018502E-011
  1.199299194307762E-011  7.539048020764488E-004  4.181604174562286E-016
  7.539048020764488E-004  1.555347074564279E-011  1.262992062654858E-015
  4.181604174562286E-016  1.262992062654858E-015  1.041151826160793E-011
   23.9657413787887       1.555347074564279E-011  1.859586250987788E-011
  1.555347074564279E-011   31.0823510615737       7.985728369241283E-012
  1.859586250987788E-011  7.985728369241283E-012   20.8082764369678     
  6.156813168170822E-012  1.262992062654858E-015  7.071170703447959E-016
  1.262992062654858E-015  7.985728369241283E-012  5.394311859589081E-004
  7.071170703447959E-016  5.394311859589081E-004  5.346384904603739E-012
  1.434089338800390E-011  4.181604174562286E-016  2.159344049928664E-004
  4.181604174562286E-016  1.859586250987788E-011  7.071170703447959E-016
  2.159344049928664E-004  7.071170703447959E-016  1.245147769018502E-011
  6.156813168170822E-012  1.262992062654858E-015  7.071170703447959E-016
  1.262992062654858E-015  7.985728369241283E-012  5.394311859589081E-004
  7.071170703447959E-016  5.394311859589081E-004  5.346384904603739E-012
   16.0454236194844       1.041151826160793E-011  1.245147769018502E-011
  1.041151826160793E-011   20.8082764369678       5.346384904603739E-012
  1.245147769018502E-011  5.346384904603739E-012   13.9316779738509     
 DDSDDE
   20.0062294402052        20.0016435958886        20.0021516211816     
 -2.327451062186080E-016 -2.407915459483156E-016 -4.540507238954689E-016
   20.0016435958886        20.0064445604325        20.0019365010019     
 -1.324844639429496E-016  3.065331011423363E-016  2.212870059168675E-016
   20.0021516211816        20.0019365010019        20.0059365351261     
  3.652298244656229E-016 -6.574119148256777E-017  2.327638766219263E-016
 -2.327451062191117E-016 -1.324844639453899E-016  3.652298244560488E-016
  2.342961968234394E-003  3.114215868949534E-016 -2.028774631001715E-016
 -2.407915459470743E-016  3.065331011441416E-016 -6.574119148660635E-017
  3.114215868949538E-016  1.959693127238996E-003 -2.370131560053385E-016
 -4.540507238906141E-016  2.212870059196016E-016  2.327638766154645E-016
 -2.028774631001714E-016 -2.370131560053386E-016  2.126587643551591E-003

               CONVERGENCE CHECKS FOR EQUILIBRIUM ITERATION     2


 AVERAGE FORCE                      3.971E-03   TIME AVG. FORCE       3.971E-03
 LARGEST RESIDUAL FORCE            -1.786E-02   AT NODE         91   DOF  2
   INSTANCE: PART-1-1                                                                        
 LARGEST INCREMENT OF DISP.         -5.22       AT NODE         73   DOF  2
   INSTANCE: PART-1-1                                                                        
 LARGEST CORRECTION TO DISP.        0.227       AT NODE       1243   DOF  2
   INSTANCE: PART-1-1                                                                        
          FORCE     EQUILIBRIUM NOT ACHIEVED WITHIN TOLERANCE.

  NUMBER OF EQUATIONS =      3888     NUMBER OF RHS =    1
  NUMBER OF FLOATING PT. OPERATIONS =  1.46E+08

     CHECK POINT   START OF SOLVER    

     CHECK POINT  END OF SOLVER       

       ELAPSED USER TIME (SEC)      =  5.00000E-02
       ELAPSED SYSTEM TIME (SEC)    =  1.00000E-02
       ELAPSED TOTAL CPU TIME (SEC) =  6.00000E-02
       ELAPSED WALLCLOCK TIME (SEC) =          0
 ***************************************************
 deformation gradient
   1.01999999999930       2.607913884844536E-013 -2.221833828031131E-014
  3.394923231425707E-013  0.887782756148367       5.740477537763507E-013
  1.532315940799859E-013 -3.453903829608920E-013   1.10423378208643     
 J
  0.999926104701995     
 C
   1.04039999999858       5.778082672536601E-013  1.317619862504448E-013
  5.778082672536601E-013  0.788158222114390       3.272512961185687E-013
  1.317619862504448E-013  3.272512961185687E-013   1.21933224550089     
 Chat
   1.04045125693519       5.778367338835398E-013  1.317684777112068E-013
  5.778367338835398E-013  0.788197051964476       3.272674186665698E-013
  1.317684777112068E-013  3.272674186665698E-013   1.21939231781502     
 I1hat, I2hat, I4ahat, I4shat
   3.04804062671468        3.04992031328671        1.04045125693519     
  0.788197051964476     
 S^hat
  2.998621546142076E-003 -5.049888911635438E-016 -1.151564335525639E-016
 -5.049888911635438E-016  3.693669812376446E-003 -2.860088346333741E-016
 -1.151564335525639E-016 -2.860088346333741E-016  2.409505365742056E-003
 S_iso
  1.250694785465605E-004  1.601730098067798E-015  1.953721177405939E-016
  1.601730098067798E-015 -9.954551260153884E-005  7.320705332274599E-016
  1.953721177405939E-016  7.320705332274599E-016 -4.237150189991359E-005
 S
 -1.295342622382148E-003  2.643051284341715E-015  3.488629488104396E-016
  2.643051284341715E-015 -1.974545618341378E-003  1.235293684333103E-015
  3.488629488104396E-016  1.235293684333103E-015 -1.254343673764472E-003
 sigma
 -1.347774058490239E-003  1.453802378667318E-015  2.100629257629775E-016
  1.453802378667317E-015 -1.556369372414281E-003  6.831424451473563E-016
  2.100629257629775E-016  6.831424451473563E-016 -1.529574716740588E-003
 Psi24a
  4.807806741822071E-005
 CChat
  4.638600386557269E-003 -7.816008890740164E-016 -1.782343580665575E-016
 -7.816008890740164E-016  7.460007788604205E-003 -4.426726277431560E-016
 -1.782343580665575E-016 -4.426726277431560E-016  5.483513437049620E-003
 -7.816008890740164E-016 -8.740161725845091E-004  3.003771277742961E-029
 -8.740161725845091E-004 -9.626302413382684E-016  7.460331100479253E-029
  3.003771277742961E-029  7.460331100479253E-029 -6.296218791148976E-016
 -1.782343580665575E-016  3.003771277742961E-029 -8.740161725845091E-004
  3.003771277742961E-029 -2.195158494812482E-016  1.701235685943513E-029
 -8.740161725845091E-004  1.701235685943513E-029 -1.435774357698771E-016
 -7.816008890740164E-016 -8.740161725845091E-004  3.003771277742961E-029
 -8.740161725845091E-004 -9.626302413382684E-016  7.460331100479253E-029
  3.003771277742961E-029  7.460331100479253E-029 -6.296218791148976E-016
  7.460007788604205E-003 -9.626302413382684E-016 -2.195158494812482E-016
 -9.626302413382684E-016  7.034938510918624E-003 -5.452016040860540E-016
 -2.195158494812482E-016 -5.452016040860540E-016  6.348992752895194E-003
 -4.426726277431560E-016  7.460331100479253E-029  1.701235685943513E-029
  7.460331100479253E-029 -5.452016040860540E-016 -8.740161725845091E-004
  1.701235685943513E-029 -8.740161725845091E-004 -3.565967946154440E-016
 -1.782343580665575E-016  3.003771277742961E-029 -8.740161725845091E-004
  3.003771277742961E-029 -2.195158494812482E-016  1.701235685943513E-029
 -8.740161725845091E-004  1.701235685943513E-029 -1.435774357698771E-016
 -4.426726277431560E-016  7.460331100479253E-029  1.701235685943513E-029
  7.460331100479253E-029 -5.452016040860540E-016 -8.740161725845091E-004
  1.701235685943513E-029 -8.740161725845091E-004 -3.565967946154440E-016
  5.483513437049620E-003 -6.296218791148976E-016 -1.435774357698771E-016
 -6.296218791148976E-016  6.348992752895194E-003 -3.565967946154440E-016
 -1.435774357698771E-016 -3.565967946154440E-016  3.009763707655940E-003
 dShat/dC
 -4.667673509640982E-004  1.457854149801605E-016  3.324455002250509E-017
  1.457854149801605E-016  3.582752106879056E-004  8.256798787978697E-017
  3.324455002250509E-017  8.256798787978697E-017  4.383004541876140E-004
  1.651634652364502E-015 -4.369865574646162E-004 -7.468351944218287E-029
 -4.369865574646162E-004  1.990428707830281E-015 -1.854880852334461E-028
 -7.468351944218287E-029 -1.854880852334461E-028  1.373797025416204E-015
  2.119394797388329E-016 -4.296368638161055E-029 -4.369865574646162E-004
 -4.296368638161055E-029  2.545792370096866E-016 -2.433319641001500E-029
 -4.369865574646162E-004 -2.433319641001500E-029  1.771134897963468E-016
  1.651634652364502E-015 -4.369865574646162E-004 -7.468351944218287E-029
 -4.369865574646162E-004  1.990428707830281E-015 -1.854880852334461E-028
 -7.468351944218287E-029 -1.854880852334461E-028  1.373797025416204E-015
  5.225170484913512E-005  2.269977165296200E-016  5.176400494651923E-017
  2.269977165296200E-016 -9.332765731353693E-004  1.285639219102105E-016
  5.176400494651923E-017  1.285639219102105E-016  1.338649877362460E-004
  7.656812414888580E-016 -1.527948304459215E-028 -3.484296000824837E-029
 -1.527948304459215E-028  9.218825011394002E-016 -4.369865574646162E-004
 -3.484296000824837E-029 -4.369865574646162E-004  6.377302925482391E-016
  2.119394797388329E-016 -4.296368638161055E-029 -4.369865574646162E-004
 -4.296368638161055E-029  2.545792370096866E-016 -2.433319641001500E-029
 -4.369865574646162E-004 -2.433319641001500E-029  1.771134897963468E-016
  7.656812414888580E-016 -1.527948304459215E-028 -3.484296000824837E-029
 -1.527948304459215E-028  9.218825011394002E-016 -4.369865574646162E-004
 -3.484296000824837E-029 -4.369865574646162E-004  6.377302925482391E-016
  3.644961278104022E-004  1.430321221215873E-016  3.261669584260719E-017
  1.430321221215873E-016  2.975561116711025E-004  8.100861480116234E-017
  3.261669584260719E-017  8.100861480116234E-017 -4.605100862363522E-004
 CCvol
   18.4755431639195      -1.354464279199577E-011 -1.996481494942674E-012
 -1.354464279199577E-011   24.3848427184514      -6.544542239987071E-012
 -1.996481494942674E-012 -6.544542239987071E-012   15.7619995324725     
 -1.354464279199577E-011  1.802191566457522E-003 -4.836823813760748E-016
  1.802191566457522E-003 -1.787946374900328E-011 -1.947462108259254E-016
 -4.836823813760748E-016 -1.947462108259254E-016 -1.155531133568325E-011
 -1.996481494942674E-012 -4.836823813760748E-016  1.164909815327006E-003
 -4.836823813760748E-016 -2.635044978788473E-012 -8.540093885434512E-016
  1.164909815327006E-003 -8.540093885434512E-016 -1.703505631873322E-012
 -1.354464279199577E-011  1.802191566457522E-003 -4.836823813760748E-016
  1.802191566457522E-003 -1.787946374900328E-011 -1.947462108259254E-016
 -4.836823813760748E-016 -1.947462108259254E-016 -1.155531133568325E-011
   24.3848427184514      -1.787946374900328E-011 -2.635044978788473E-012
 -1.787946374900328E-011   32.1937139682227      -8.640331346802938E-012
 -2.635044978788473E-012 -8.640331346802938E-012   20.8064622729798     
 -6.544542239987071E-012 -1.947462108259254E-016 -8.540093885434512E-016
 -1.947462108259254E-016 -8.640331346802938E-012  1.537726991686013E-003
 -8.540093885434512E-016  1.537726991686013E-003 -5.584981630644866E-012
 -1.996481494942674E-012 -4.836823813760748E-016  1.164909815327006E-003
 -4.836823813760748E-016 -2.635044978788473E-012 -8.540093885434512E-016
  1.164909815327006E-003 -8.540093885434512E-016 -1.703505631873322E-012
 -6.544542239987071E-012 -1.947462108259254E-016 -8.540093885434512E-016
 -1.947462108259254E-016 -8.640331346802938E-012  1.537726991686013E-003
 -8.540093885434512E-016  1.537726991686013E-003 -5.584981630644866E-012
   15.7619995324725      -1.155531133568324E-011 -1.703505631873322E-012
 -1.155531133568324E-011   20.8064622729798      -5.584981630644866E-012
 -1.703505631873322E-012 -5.584981630644866E-012   13.4509755798086     
 CCiso
  2.431270877311579E-003 -3.260336289140618E-015 -4.309666781956448E-016
 -3.260336289140618E-015 -2.072301227222651E-003  4.616652505740853E-016
 -4.309666781956448E-016  4.616652505740853E-016 -9.401309289360020E-004
 -3.260336289140618E-015  2.826084425498090E-003 -9.930539612633676E-016
  2.826084425498090E-003 -4.807699135085659E-015 -3.998357346210584E-016
 -9.930539612633676E-016 -3.998357346210584E-016  5.838860041329020E-016
 -4.309666781956451E-016 -9.930539612633676E-016  1.517673803457414E-003
 -9.930539612633676E-016  1.620727941280394E-016 -1.753376672461990E-015
  1.517673803457414E-003 -1.753376672461990E-015 -3.854970477679163E-016
 -3.260336289140618E-015  2.826084425498090E-003 -9.930539612633676E-016
  2.826084425498090E-003 -4.807699135085659E-015 -3.998357346210584E-016
 -9.930539612633676E-016 -3.998357346210584E-016  5.838860041329020E-016
 -2.072301227222653E-003 -4.807699135085659E-015  1.620727941280393E-016
 -4.807699135085659E-015  5.252286580044350E-003 -2.250105073464021E-015
  1.620727941280393E-016 -2.250105073464021E-015 -1.463522025342193E-003
  4.616652505740854E-016 -3.998357346210584E-016 -1.753376672461990E-015
 -3.998357346210584E-016 -2.250105073464021E-015  2.283109111720989E-003
 -1.753376672461990E-015  2.283109111720989E-003 -1.365763744736778E-015
 -4.309666781956451E-016 -9.930539612633676E-016  1.517673803457414E-003
 -9.930539612633676E-016  1.620727941280394E-016 -1.753376672461990E-015
  1.517673803457414E-003 -1.753376672461990E-015 -3.854970477679163E-016
  4.616652505740854E-016 -3.998357346210584E-016 -1.753376672461990E-015
 -3.998357346210584E-016 -2.250105073464021E-015  2.283109111720989E-003
 -1.753376672461990E-015  2.283109111720989E-003 -1.365763744736778E-015
 -9.401309289360013E-004  5.838860041329021E-016 -3.854970477679161E-016
  5.838860041329021E-016 -1.463522025342193E-003 -1.365763744736778E-015
 -3.854970477679161E-016 -1.365763744736778E-015  1.817668765185142E-003
 CC_ref
   18.4779744347968      -1.354790312828492E-011 -1.996912461620869E-012
 -1.354790312828492E-011   24.3827704172242      -6.544080574736497E-012
 -1.996912461620869E-012 -6.544080574736497E-012   15.7610594015435     
 -1.354790312828492E-011  4.628275991955612E-003 -1.476736342639442E-015
  4.628275991955612E-003 -1.788427144813836E-011 -5.945819454469837E-016
 -1.476736342639442E-015 -5.945819454469837E-016 -1.155472744967911E-011
 -1.996912461620869E-012 -1.476736342639442E-015  2.682583618784420E-003
 -1.476736342639442E-015 -2.634882905994345E-012 -2.607386061005441E-015
  2.682583618784420E-003 -2.607386061005441E-015 -1.703891128921090E-012
 -1.354790312828492E-011  4.628275991955612E-003 -1.476736342639442E-015
  4.628275991955612E-003 -1.788427144813836E-011 -5.945819454469837E-016
 -1.476736342639442E-015 -5.945819454469837E-016 -1.155472744967911E-011
   24.3827704172242      -1.788427144813836E-011 -2.634882905994345E-012
 -1.788427144813836E-011   32.1989662548027      -8.642581451876402E-012
 -2.634882905994345E-012 -8.642581451876402E-012   20.8049987509545     
 -6.544080574736497E-012 -5.945819454469837E-016 -2.607386061005441E-015
 -5.945819454469837E-016 -8.642581451876402E-012  3.820836103407002E-003
 -2.607386061005441E-015  3.820836103407002E-003 -5.586347394389602E-012
 -1.996912461620869E-012 -1.476736342639442E-015  2.682583618784420E-003
 -1.476736342639442E-015 -2.634882905994345E-012 -2.607386061005441E-015
  2.682583618784420E-003 -2.607386061005441E-015 -1.703891128921090E-012
 -6.544080574736497E-012 -5.945819454469837E-016 -2.607386061005441E-015
 -5.945819454469837E-016 -8.642581451876402E-012  3.820836103407002E-003
 -2.607386061005441E-015  3.820836103407002E-003 -5.586347394389602E-012
   15.7610594015435      -1.155472744967911E-011 -1.703891128921090E-012
 -1.155472744967911E-011   20.8049987509545      -5.586347394389602E-012
 -1.703891128921090E-012 -5.586347394389602E-012   13.4527932485738     
 DDSDDE
   19.9999363321539        19.9953447758798        19.9958514561748     
  1.774822587051908E-016  1.654785687787972E-017 -2.548841052084372E-016
   19.9953447758798        20.0001501880397        19.9956376003463     
  2.061167413129498E-017 -1.428525842684409E-017  1.215825074066315E-016
   19.9958514561748        19.9956376003463        19.9996435077149     
 -1.980942560421948E-016 -2.262646095396282E-018  1.333014562668449E-016
  1.774822587033249E-016  2.061167413162571E-017 -1.980942560460852E-016
  2.343394205504184E-003  2.249524317574489E-016  4.077464595658678E-018
  1.654785687699748E-017 -1.428525842659754E-017 -2.262646095800179E-018
  2.249524317574489E-016  1.964684624833199E-003  1.221663653086011E-016
 -2.548841052074563E-016  1.215825074057102E-016  1.333014562652291E-016
  4.077464595658728E-018  1.221663653086001E-016  2.129224958103976E-003

               CONVERGENCE CHECKS FOR EQUILIBRIUM ITERATION     3


 AVERAGE FORCE                      3.510E-03   TIME AVG. FORCE       3.510E-03
 LARGEST RESIDUAL FORCE             1.719E-02   AT NODE         91   DOF  2
   INSTANCE: PART-1-1                                                                        
 LARGEST INCREMENT OF DISP.         -5.61       AT NODE        289   DOF  2
   INSTANCE: PART-1-1                                                                        
 LARGEST CORRECTION TO DISP.       -0.395       AT NODE        667   DOF  2
   INSTANCE: PART-1-1                                                                        
          FORCE     EQUILIBRIUM NOT ACHIEVED WITHIN TOLERANCE.

  NUMBER OF EQUATIONS =      3888     NUMBER OF RHS =    1
  NUMBER OF FLOATING PT. OPERATIONS =  1.46E+08

     CHECK POINT   START OF SOLVER    

     CHECK POINT  END OF SOLVER       

       ELAPSED USER TIME (SEC)      =  4.00000E-02
       ELAPSED SYSTEM TIME (SEC)    =   0.0000    
       ELAPSED TOTAL CPU TIME (SEC) =  4.00000E-02
       ELAPSED WALLCLOCK TIME (SEC) =          0
 ***************************************************
 deformation gradient
   1.02000000000051       4.483080573436399E-013 -3.487349298225708E-013
 -5.216799214835553E-013  0.889865307600010      -2.056256900861982E-011
  3.808550697037575E-013  2.277050770160835E-011   1.10172864443004     
 J
  0.999997901049324     
 C
   1.04040000000104      -1.331797325586593E-013  4.260909609409621E-015
 -1.331797325586593E-013  0.791860265670061      -2.391686439765866E-012
  4.260909609409621E-015 -2.391686439765866E-012   1.21380600595764     
 Chat
   1.04040145583582      -1.331799189174507E-013  4.260915571712964E-015
 -1.331799189174507E-013  0.791861373722458      -2.391689786459733E-012
  4.260915571712964E-015 -2.391689786459733E-012   1.21380770443996     
 I1hat, I2hat, I4ahat, I4shat
   3.04607053399823        3.04786846511778        1.04040145583582     
  0.791861373722458     
 S^hat
  2.996844571255673E-003  1.163860518466185E-016 -3.723617979906050E-018
  1.163860518466185E-016  3.688623404399320E-003  2.090099872042021E-015
 -3.723617979906050E-018  2.090099872042021E-015  2.412582174781636E-003
 S_iso
  1.238476915785977E-004 -3.668120604869353E-016  6.361676947600297E-018
 -3.668120604869353E-016 -8.611610322359093E-005 -5.347663695129589E-015
  6.361676947600297E-018 -5.347663695129589E-015 -4.997461281899362E-005
 S
  8.349885900345720E-005 -3.735981652637218E-016  6.503316326205946E-018
 -3.735981652637218E-016 -1.391291501349624E-004 -5.452120737528689E-015
  6.503316326205946E-018 -5.452120737528689E-015 -8.455915532840255E-005
 sigma
  8.687239524815616E-005 -2.363324969614312E-016 -5.787421381231482E-017
 -2.363324969614312E-016 -1.101710770319778E-004 -4.920770719690106E-015
 -5.787421381231482E-017 -4.920770719690106E-015 -1.026386260297339E-004
 Psi24a
  4.807481642779909E-005
 CChat
  4.632438505954818E-003  1.800044359327255E-016 -5.759004137242049E-018
  1.800044359327255E-016  7.447768488846368E-003  3.232580215074260E-015
 -5.759004137242049E-018  3.232580215074260E-015  5.485278292061226E-003
  1.800044359327255E-016 -8.739033520336920E-004 -2.238196990221332E-031
 -8.739033520336920E-004  2.215239215336311E-016  1.256319866353335E-028
 -2.238196990221332E-031  1.256319866353335E-028  1.452735571385900E-016
 -5.759004137242049E-018 -2.238196990221332E-031 -8.739033520336920E-004
 -2.238196990221332E-031 -7.087365230749443E-018 -4.019429449356616E-030
 -8.739033520336920E-004 -4.019429449356616E-030 -4.647835550595483E-018
  1.800044359327255E-016 -8.739033520336920E-004 -2.238196990221332E-031
 -8.739033520336920E-004  2.215239215336311E-016  1.256319866353335E-028
 -2.238196990221332E-031  1.256319866353335E-028  1.452735571385900E-016
  7.447768488846368E-003  2.215239215336311E-016 -7.087365230749443E-018
  2.215239215336311E-016  7.014696895758638E-003  3.978201104904492E-015
 -7.087365230749443E-018  3.978201104904492E-015  6.347646992891715E-003
  3.232580215074260E-015  1.256319866353335E-028 -4.019429449356616E-030
  1.256319866353335E-028  3.978201104904492E-015 -8.739033520336920E-004
 -4.019429449356616E-030 -8.739033520336920E-004  2.608871410008897E-015
 -5.759004137242049E-018 -2.238196990221332E-031 -8.739033520336920E-004
 -2.238196990221332E-031 -7.087365230749443E-018 -4.019429449356616E-030
 -8.739033520336920E-004 -4.019429449356616E-030 -4.647835550595483E-018
  3.232580215074260E-015  1.256319866353335E-028 -4.019429449356616E-030
  1.256319866353335E-028  3.978201104904492E-015 -8.739033520336920E-004
 -4.019429449356616E-030 -8.739033520336920E-004  2.608871410008897E-015
  5.485278292061226E-003  1.452735571385900E-016 -4.647835550595483E-018
  1.452735571385900E-016  6.347646992891715E-003  2.608871410008897E-015
 -4.647835550595483E-018  2.608871410008897E-015  3.016978123747269E-003
 dShat/dC
 -4.672039701186430E-004 -3.363591500600195E-017  1.076136666720167E-018
 -3.363591500600195E-017  3.584905041257647E-004 -6.040450770055361E-016
  1.076136666720167E-018 -6.040450770055361E-016  4.365768337488528E-004
 -3.781299066018664E-016 -4.369510645899367E-004  5.533722957012962E-031
 -4.369510645899367E-004 -4.552490975862580E-016 -3.106127886046089E-028
  5.533722957012962E-031 -3.106127886046089E-028 -3.152098462697873E-016
  6.891339218872246E-018  3.221056024580538E-031 -4.369510645899367E-004
  3.221056024580538E-031  8.270085212203750E-018  5.784480767238576E-030
 -4.369510645899367E-004  5.784480767238576E-030  5.771206661265667E-018
 -3.781299066018664E-016 -4.369510645899367E-004  5.533722957012962E-031
 -4.369510645899367E-004 -4.552490975862580E-016 -3.106127886046089E-028
  5.533722957012962E-031 -3.106127886046089E-028 -3.152098462697873E-016
  6.683210898507375E-005 -5.168223655307107E-017  1.653504884970152E-018
 -5.168223655307107E-017 -9.143333363606555E-004 -9.281269902408652E-016
  1.653504884970152E-018 -9.281269902408652E-016  1.439622221159850E-004
 -5.589566710988561E-015 -2.572642485393906E-028  8.230829779420222E-030
 -2.572642485393906E-028 -6.723385588547928E-015 -4.369510645899367E-004
  8.230829779420222E-030 -4.369510645899367E-004 -4.665603726647904E-015
  6.891339218872246E-018  3.221056024580538E-031 -4.369510645899367E-004
  3.221056024580538E-031  8.270085212203750E-018  5.784480767238576E-030
 -4.369510645899367E-004  5.784480767238576E-030  5.771206661265667E-018
 -5.589566710988561E-015 -2.572642485393906E-028  8.230829779420222E-030
 -2.572642485393906E-028 -6.723385588547928E-015 -4.369510645899367E-004
  8.230829779420222E-030 -4.369510645899367E-004 -4.665603726647904E-015
  3.568585572148381E-004 -3.333823330010609E-017  1.066612733785113E-018
 -3.333823330010609E-017  2.892145889710476E-004 -5.986992087891101E-016
  1.066612733785113E-018 -5.986992087891101E-016 -4.681248181359462E-004
 CCvol
   18.4768697383738       3.107548991860845E-012 -6.486067083718302E-014
  3.107548991860845E-012   24.2760691646672       4.783362839446918E-011
 -6.486067083718302E-014  4.783362839446918E-011   15.8371720718186     
  3.107548991860845E-012  5.095448568946433E-005  1.004008481234581E-016
  5.095448568946433E-005  4.082909714379275E-012 -1.788611125759586E-019
  1.004008481234581E-016 -1.788611125759586E-019  2.663589060407490E-012
 -6.486067083718301E-014  1.004008481234581E-016  3.324158257340876E-005
  1.004008481234581E-016 -8.521801331098987E-014  5.590765360908974E-018
  3.324158257340876E-005  5.590765360908974E-018 -5.559458563218476E-014
  3.107548991860845E-012  5.095448568946433E-005  1.004008481234581E-016
  5.095448568946433E-005  4.082909714379275E-012 -1.788611125759586E-019
  1.004008481234581E-016 -1.788611125759586E-019  2.663589060407490E-012
   24.2760691646672       4.082909714379275E-012 -8.521801331098987E-014
  4.082909714379275E-012   31.8956885198258       6.284734574177501E-011
 -8.521801331098987E-014  6.284734574177501E-011   20.8079563249634     
  4.783362839446918E-011 -1.788611125759586E-019  5.590765360908974E-018
 -1.788611125759586E-019  6.284734574177502E-011  4.367505734126462E-005
  5.590765360908974E-018  4.367505734126462E-005  4.100022215368466E-011
 -6.486067083718301E-014  1.004008481234581E-016  3.324158257340876E-005
  1.004008481234581E-016 -8.521801331098987E-014  5.590765360908974E-018
  3.324158257340876E-005  5.590765360908974E-018 -5.559458563218476E-014
  4.783362839446918E-011 -1.788611125759586E-019  5.590765360908974E-018
 -1.788611125759586E-019  6.284734574177502E-011  4.367505734126462E-005
  5.590765360908974E-018  4.367505734126462E-005  4.100022215368466E-011
   15.8371720718186       2.663589060407490E-012 -5.559458563218476E-014
  2.663589060407490E-012   20.8079563249634       4.100022215368466E-011
 -5.559458563218476E-014  4.100022215368466E-011   13.5747087357850     
 CCiso
  2.432525655909884E-003  7.473916678886273E-016 -1.402192481359785E-017
  7.473916678886273E-016 -2.062080711307551E-003 -3.366021985767293E-015
 -1.402192481359785E-017 -3.366021985767293E-015 -9.438207748770496E-004
  7.473916678886273E-016  2.807206666585676E-003  7.253268538469756E-015
  2.807206666585676E-003  1.091918768810578E-015 -1.292206247945042E-017
  7.253268538469756E-015 -1.292206247945042E-017 -1.325443336384721E-016
 -1.402192481359784E-017  7.253268538469756E-015  1.527571630786891E-003
  7.253268538469756E-015  5.292985798843404E-018  4.038942346572532E-016
  1.527571630786891E-003  4.038942346572532E-016 -1.264117910593665E-017
  7.473916678886273E-016  2.807206666585676E-003  7.253268538469756E-015
  2.807206666585676E-003  1.091918768810578E-015 -1.292206247945042E-017
  7.253268538469756E-015 -1.292206247945042E-017 -1.325443336384721E-016
 -2.062080711307551E-003  1.091918768810579E-015  5.292985798843404E-018
  1.091918768810579E-015  5.168892310325950E-003  1.629109501202629E-014
  5.292985798843404E-018  1.629109501202629E-014 -1.462687958719632E-003
 -3.366021985767291E-015 -1.292206247945042E-017  4.038942346572532E-016
 -1.292206247945042E-017  1.629109501202629E-014  2.281318194554245E-003
  4.038942346572532E-016  2.281318194554245E-003  1.005882534001904E-014
 -1.402192481359784E-017  7.253268538469756E-015  1.527571630786891E-003
  7.253268538469756E-015  5.292985798843404E-018  4.038942346572532E-016
  1.527571630786891E-003  4.038942346572532E-016 -1.264117910593665E-017
 -3.366021985767291E-015 -1.292206247945042E-017  4.038942346572532E-016
 -1.292206247945042E-017  1.629109501202629E-014  2.281318194554245E-003
  4.038942346572532E-016  2.281318194554245E-003  1.005882534001904E-014
 -9.438207748770495E-004 -1.325443336384721E-016 -1.264117910593665E-017
 -1.325443336384721E-016 -1.462687958719633E-003  1.005882534001903E-014
 -1.264117910593665E-017  1.005882534001903E-014  1.845554251119810E-003
 CC_ref
   18.4793022640297       3.108296383528733E-012 -6.487469276199663E-014
  3.108296383528733E-012   24.2740070839559       4.783026237248342E-011
 -6.487469276199663E-014  4.783026237248342E-011   15.8362282510438     
  3.108296383528733E-012  2.858161152275141E-003  7.353669386593213E-015
  2.858161152275141E-003  4.084001633148086E-012 -1.310092359202637E-017
  7.353669386593213E-015 -1.310092359202637E-017  2.663456516073851E-012
 -6.487469276199661E-014  7.353669386593213E-015  1.560813213360300E-003
  7.353669386593213E-015 -8.521272032519103E-014  4.094850000181622E-016
  1.560813213360300E-003  4.094850000181622E-016 -5.560722681129070E-014
  3.108296383528733E-012  2.858161152275141E-003  7.353669386593213E-015
  2.858161152275141E-003  4.084001633148086E-012 -1.310092359202637E-017
  7.353669386593213E-015 -1.310092359202637E-017  2.663456516073851E-012
   24.2740070839559       4.084001633148086E-012 -8.521272032519103E-014
  4.084001633148086E-012   31.9008574121361       6.286363683678703E-011
 -8.521272032519103E-014  6.286363683678703E-011   20.8064936370047     
  4.783026237248341E-011 -1.310092359202637E-017  4.094850000181622E-016
 -1.310092359202637E-017  6.286363683678704E-011  2.324993251895510E-003
  4.094850000181622E-016  2.324993251895510E-003  4.101028097902467E-011
 -6.487469276199661E-014  7.353669386593213E-015  1.560813213360300E-003
  7.353669386593213E-015 -8.521272032519103E-014  4.094850000181622E-016
  1.560813213360300E-003  4.094850000181622E-016 -5.560722681129070E-014
  4.783026237248341E-011 -1.310092359202637E-017  4.094850000181622E-016
 -1.310092359202637E-017  6.286363683678704E-011  2.324993251895510E-003
  4.094850000181622E-016  2.324993251895510E-003  4.101028097902467E-011
   15.8362282510438       2.663456516073851E-012 -5.560722681129070E-014
  2.663456516073851E-012   20.8064936370047       4.101028097902467E-011
 -5.560722681129070E-014  4.101028097902467E-011   13.5765542900361     
 DDSDDE
   20.0028067943171        19.9982171902841        19.9987241412870     
 -8.898073571089962E-017 -5.279855327782154E-017  1.118870339145325E-014
   19.9982171902841        20.0030207807376        19.9985101549212     
 -6.532544878535534E-017  9.954314938918569E-017 -5.586071797575252E-015
   19.9987241412870        19.9985101549212        20.0025138297093     
  1.543062315535596E-016 -4.674458765134442E-017 -5.602631012277512E-015
 -8.898073571037650E-017 -6.532544878260606E-017  1.543062315585651E-016
  2.343055726563153E-003 -8.633021982422206E-015 -7.314919985576547E-017
 -5.279855327698338E-017  9.954314938935687E-017 -4.674458765215222E-017
 -8.633021982422203E-015  1.963184262222376E-003 -1.107933419986785E-016
  1.118870339150591E-014 -5.586071797566972E-015 -5.602631012277512E-015
 -7.314919985576530E-017 -1.107933419986788E-016  2.128301388229847E-003

               CONVERGENCE CHECKS FOR EQUILIBRIUM ITERATION     4


 AVERAGE FORCE                      2.379E-04   TIME AVG. FORCE       2.379E-04
 LARGEST RESIDUAL FORCE             1.214E-03   AT NODE         91   DOF  2
   INSTANCE: PART-1-1                                                                        
 LARGEST INCREMENT OF DISP.         -5.51       AT NODE        649   DOF  2
   INSTANCE: PART-1-1                                                                        
 LARGEST CORRECTION TO DISP.        0.104       AT NODE          1   DOF  2
   INSTANCE: PART-1-1                                                                        
          FORCE     EQUILIBRIUM NOT ACHIEVED WITHIN TOLERANCE.

  NUMBER OF EQUATIONS =      3888     NUMBER OF RHS =    1
  NUMBER OF FLOATING PT. OPERATIONS =  1.46E+08

     CHECK POINT   START OF SOLVER    

     CHECK POINT  END OF SOLVER       

       ELAPSED USER TIME (SEC)      =  5.00000E-02
       ELAPSED SYSTEM TIME (SEC)    =  1.00000E-02
       ELAPSED TOTAL CPU TIME (SEC) =  6.00000E-02
       ELAPSED WALLCLOCK TIME (SEC) =          0
 ***************************************************
 deformation gradient
   1.01999999999996      -5.345723863570124E-014  4.839878497975287E-014
  3.785860513971780E-014  0.890635581594040       1.204676983168616E-012
 -1.133121374508049E-014 -1.315947351088197E-012   1.10078082899753     
 J
   1.00000246531858     
 C
   1.04039999999991      -8.995141580150365E-015  4.171861663257428E-014
 -8.995141580150365E-015  0.793231739201354       1.540557938230197E-013
  4.171861663257428E-014  1.540557938230197E-013   1.21171843348849     
 Chat
   1.04039829005841      -8.995126796253873E-015  4.171854806625939E-014
 -8.995126796253873E-015  0.793230435491365       1.540555406257921E-013
  4.171854806625939E-014  1.540555406257921E-013   1.21171644197788     
 I1hat, I2hat, I4ahat, I4shat
   3.04534516752765        3.04711366393910        1.04039829005841     
  0.793230435491365     
 S^hat
  2.996196386088210E-003  7.860803576787398E-018 -3.645766416480131E-017
  7.860803576787398E-018  3.686771814026775E-003 -1.346284907600723E-016
 -3.645766416480131E-017 -1.346284907600723E-016  2.413761183785348E-003
 S_iso
  1.234208641900661E-004 -2.471604278874970E-017  6.244987452152500E-017
 -2.471604278874970E-017 -8.115020476749928E-005  3.444180734083922E-016
  6.244987452152500E-017  3.444180734083922E-016 -5.284760427137357E-005
 S
  1.708127260545497E-004 -2.417862542866346E-017  6.081820592427809E-017
 -2.417862542866346E-017 -1.899120299401069E-005  3.365152850238889E-016
  6.081820592427809E-017  3.365152850238889E-016 -1.215622604264347E-005
 sigma
  1.777131220676770E-004 -3.191910208037540E-017  7.687037372663611E-017
 -3.191910208037540E-017 -1.506438784194987E-005  3.271498956451712E-016
  7.687037372663610E-017  3.271498956451712E-016 -1.472988686366019E-005
 Psi24a
  4.807444194172017E-005
 CChat
  4.630344925766989E-003  1.215476141018237E-017 -5.637263482887059E-017
  1.215476141018237E-017  7.443539873281636E-003 -2.081691990159594E-016
 -5.637263482887059E-017 -2.081691990159594E-016  5.486193051437678E-003
  1.215476141018237E-017 -8.738929328883445E-004 -1.480058254226349E-031
 -8.738929328883445E-004  1.495407252777937E-017 -5.465462847613202E-031
 -1.480058254226349E-031 -5.465462847613202E-031  9.816457756403392E-018
 -5.637263482887059E-017 -1.480058254226349E-031 -8.738929328883445E-004
 -1.480058254226349E-031 -6.935557526507658E-017  2.534830021600855E-030
 -8.738929328883445E-004  2.534830021600855E-030 -4.552780344591394E-017
  1.215476141018237E-017 -8.738929328883445E-004 -1.480058254226349E-031
 -8.738929328883445E-004  1.495407252777937E-017 -5.465462847613202E-031
 -1.480058254226349E-031 -5.465462847613202E-031  9.816457756403392E-018
  7.443539873281636E-003  1.495407252777937E-017 -6.935557526507658E-017
  1.495407252777937E-017  7.007511527776402E-003 -2.561117569553087E-016
 -6.935557526507658E-017 -2.561117569553087E-016  6.347459860885198E-003
 -2.081691990159594E-016 -5.465462847613202E-031  2.534830021600855E-030
 -5.465462847613202E-031 -2.561117569553087E-016 -8.738929328883445E-004
  2.534830021600855E-030 -8.738929328883445E-004 -1.681221111105162E-016
 -5.637263482887059E-017 -1.480058254226349E-031 -8.738929328883445E-004
 -1.480058254226349E-031 -6.935557526507658E-017  2.534830021600855E-030
 -8.738929328883445E-004  2.534830021600855E-030 -4.552780344591394E-017
 -2.081691990159594E-016 -5.465462847613202E-031  2.534830021600855E-030
 -5.465462847613202E-031 -2.561117569553087E-016 -8.738929328883445E-004
  2.534830021600855E-030 -8.738929328883445E-004 -1.681221111105162E-016
  5.486193051437678E-003  9.816457756403392E-018 -4.552780344591394E-017
  9.816457756403392E-018  6.347459860885198E-003 -1.681221111105162E-016
 -4.552780344591394E-017 -1.681221111105162E-016  3.019852925906114E-003
 dShat/dC
 -4.673453992887605E-004 -2.272652572172914E-018  1.054034787031454E-017
 -2.272652572172914E-018  3.586130568335524E-004  3.892271099574770E-017
  1.054034787031454E-017  3.892271099574770E-017  4.359631653434352E-004
 -2.547603198225649E-017 -4.369471845853924E-004  3.651526835336630E-031
 -4.369471845853924E-004 -3.066076895687544E-017  1.348412077606159E-030
  3.651526835336630E-031  1.348412077606159E-030 -2.125439718688235E-017
  6.761390759388117E-017  2.134831045534344E-031 -4.369471845853924E-004
  2.134831045534344E-031  8.111350083298971E-017 -3.656230293512765E-030
 -4.369471845853924E-004 -3.656230293512765E-030  5.666920110962923E-017
 -2.547603198225649E-017 -4.369471845853924E-004  3.651526835336630E-031
 -4.369471845853924E-004 -3.066076895687544E-017  1.348412077606159E-030
  3.651526835336630E-031  1.348412077606159E-030 -2.125439718688235E-017
  7.223027825823238E-005 -3.474839255477686E-018  1.611597610414379E-017
 -3.474839255477686E-018 -9.073514081527621E-004  5.951202825882118E-017
  1.611597610414379E-017  5.951202825882118E-017  1.477011138660198E-004
  3.599121910661548E-016  1.119130554136826E-030 -5.190421755324300E-030
  1.119130554136826E-030  4.327652086361349E-016 -4.369471845853924E-004
 -5.190421755324300E-030 -4.369471845853924E-004  3.006635593035857E-016
  6.761390759388117E-017  2.134831045534344E-031 -4.369471845853924E-004
  2.134831045534344E-031  8.111350083298971E-017 -3.656230293512765E-030
 -4.369471845853924E-004 -3.656230293512765E-030  5.666920110962923E-017
  3.599121910661548E-016  1.119130554136826E-030 -5.190421755324300E-030
  1.119130554136826E-030  4.327652086361349E-016 -4.369471845853924E-004
 -5.190421755324300E-030 -4.369471845853924E-004  3.006635593035857E-016
  3.539853265349252E-004 -2.261238053015023E-018  1.048740840910093E-017
 -2.261238053015023E-018  2.860719031814851E-004  3.872721959694000E-017
  1.048740840910093E-017  3.872721959694000E-017 -4.710149548701103E-004
 CCvol
   18.4769540719993       2.095261821154619E-013 -6.361485821819649E-013
  2.095261821154619E-013   24.2344284150617      -3.081123472373881E-012
 -6.361485821819649E-013 -3.081123472373881E-012   15.8646738953095     
  2.095261821154619E-013 -5.974529197759898E-005  7.595913472701498E-018
 -5.974529197759898E-005  2.748138142989420E-013  2.056988505243935E-018
  7.595913472701498E-018  2.056988505243935E-018  1.799032751198126E-013
 -6.361485821819649E-013  7.595913472701498E-018 -3.911128241900579E-005
  7.595913472701498E-018 -8.343743896400606E-013 -4.435165932065151E-019
 -3.911128241900579E-005 -4.435165932065151E-019 -5.462069129348991E-013
  2.095261821154619E-013 -5.974529197759898E-005  7.595913472701498E-018
 -5.974529197759898E-005  2.748138142989420E-013  2.056988505243935E-018
  7.595913472701498E-018  2.056988505243935E-018  1.799032751198126E-013
   24.2344284150617       2.748138142989420E-013 -8.343743896400606E-013
  2.748138142989420E-013   31.7856355954818      -4.041170942438844E-012
 -8.343743896400606E-013 -4.041170942438844E-012   20.8080512982207     
 -3.081123472373881E-012  2.056988505243935E-018 -4.435165932065151E-019
  2.056988505243935E-018 -4.041170942438844E-012 -5.129822247115227E-005
 -4.435165932065151E-019 -5.129822247115227E-005 -2.645486745507362E-012
 -6.361485821819649E-013  7.595913472701498E-018 -3.911128241900579E-005
  7.595913472701498E-018 -8.343743896400606E-013 -4.435165932065151E-019
 -3.911128241900579E-005 -4.435165932065151E-019 -5.462069129348991E-013
 -3.081123472373881E-012  2.056988505243935E-018 -4.435165932065151E-019
  2.056988505243935E-018 -4.041170942438844E-012 -5.129822247115227E-005
 -4.435165932065151E-019 -5.129822247115227E-005 -2.645486745507362E-012
   15.8646738953095       1.799032751198126E-013 -5.462069129348992E-013
  1.799032751198126E-013   20.8080512982207      -2.645486745507362E-012
 -5.462069129348992E-013 -2.645486745507362E-012   13.6215847524935     
 CCiso
  2.433017037857689E-003  5.037838581011255E-017 -1.376065473286787E-016
  5.037838581011255E-017 -2.058377186190286E-003  2.166457350211975E-016
 -1.376065473286787E-016  2.166457350211975E-016 -9.452547199762470E-004
  5.037838581011253E-017  2.800307914670147E-003 -4.671315650503524E-016
  2.800307914670147E-003  7.334905058737899E-017 -1.265001607255394E-016
 -4.671315650503524E-016 -1.265001607255394E-016 -8.901444283920849E-018
[...]
  8.844055425348687E-018 -1.265667652863177E-017 -4.399126159349941E-019
 -2.098972391280906E-003  9.766126631042225E-018  2.993275426895690E-018
  9.766126631042225E-018  8.835963403098586E-003  3.839419120032832E-017
  2.993275426895690E-018  3.839419120032832E-017 -1.844028353613397E-003
 -7.837824817794379E-018 -1.265667652863177E-017  3.466893691122378E-018
 -1.265667652863177E-017  3.839419120032832E-017  3.796807131043165E-003
  3.466893691122378E-018  3.796807131043165E-003  2.560134552184331E-017
 -5.691067606837975E-018  8.844055425348687E-018  1.350886286587622E-003
  8.844055425348687E-018  2.993275426895685E-018  3.466893691122378E-018
  1.350886286587622E-003  3.466893691122378E-018 -1.477069915388088E-017
 -7.837824817794379E-018 -1.265667652863177E-017  3.466893691122378E-018
 -1.265667652863177E-017  3.839419120032832E-017  3.796807131043165E-003
  3.466893691122378E-018  3.796807131043165E-003  2.560134552184331E-017
 -1.079634122769517E-003 -4.399126159349946E-019 -1.477069915388089E-017
 -4.399126159349946E-019 -1.844028353613398E-003  2.560134552184331E-017
 -1.477069915388089E-017  2.560134552184331E-017  3.724537763834826E-003
 CC_ref
   9.64618551463418       1.466185973018911E-014 -3.721671291442433E-014
  1.466185973018911E-014   19.9863673393226       5.387719010001137E-014
 -3.721671291442433E-014  5.387719010001137E-014   13.8970675272047     
  1.466185973018911E-014  1.903133971451414E-003  7.638098058285656E-018
  1.903133971451414E-003  3.038784520505769E-014 -1.093083792087067E-017
  7.638098058285656E-018 -1.093083792087067E-017  2.112263704403732E-014
 -3.721671291442433E-014  7.638098058285656E-018  1.039843059880486E-003
  7.638098058285656E-018 -7.711155829399231E-014  2.994155135313174E-018
  1.039843059880486E-003  2.994155135313174E-018 -5.363076090874902E-014
  1.466185973018911E-014  1.903133971451414E-003  7.638098058285656E-018
  1.903133971451414E-003  3.038784520505769E-014 -1.093083792087067E-017
  7.638098058285656E-018 -1.093083792087067E-017  2.112263704403732E-014
   19.9863673393226       3.038784520505770E-014 -7.711155829399233E-014
  3.038784520505770E-014   41.4283819826905       1.116974559259714E-013
 -7.711155829399233E-014  1.116974559259714E-013   28.7988005356529     
  5.387719010001137E-014 -1.093083792087067E-017  2.994155135313174E-018
 -1.093083792087067E-017  1.116974559259714E-013  3.152243124600576E-003
  2.994155135313174E-018  3.152243124600576E-003  7.766307726212899E-014
 -3.721671291442433E-014  7.638098058285656E-018  1.039843059880486E-003
  7.638098058285656E-018 -7.711155829399231E-014  2.994155135313174E-018
  1.039843059880486E-003  2.994155135313174E-018 -5.363076090874902E-014
  5.387719010001137E-014 -1.093083792087067E-017  2.994155135313174E-018
 -1.093083792087067E-017  1.116974559259714E-013  3.152243124600576E-003
  2.994155135313174E-018  3.152243124600576E-003  7.766307726212899E-014
   13.8970675272047       2.112263704403732E-014 -5.363076090874902E-014
  2.112263704403732E-014   28.7988005356529       7.766307726212898E-014
 -5.363076090874902E-014  7.766307726212898E-014   20.0281563155162     
 DDSDDE
   20.0045492321897        19.9987949702794        19.9993415407896     
 -3.570274492044794E-019  5.096832673008073E-018 -4.648722839529764E-018
   19.9987949702794        20.0042761293916        19.9996146439166     
 -1.888675636970854E-019 -4.027513380929184E-018  2.339239770098376E-018
   19.9993415407896        19.9996146439166        20.0037295588559     
  5.458950503608071E-019 -1.069321359767639E-018  2.309484883866016E-018
 -3.570274492147147E-019 -1.888675636970180E-019  5.458950503608065E-019
  2.573361721871824E-003  9.672769985789409E-019  1.463406678848471E-018
  5.096832672995440E-018 -4.027513380918131E-018 -1.069321359806295E-018
  9.672769985789409E-019  2.165488630994816E-003 -3.681039284100140E-019
 -4.648722839529747E-018  2.339239770123360E-018  2.309484883903881E-018
  1.463406678848472E-018 -3.681039284100131E-019  2.193888666559110E-003

               CONVERGENCE CHECKS FOR EQUILIBRIUM ITERATION     1


 AVERAGE FORCE                      9.159E-04   TIME AVG. FORCE       1.413E-03
 LARGEST RESIDUAL FORCE            -5.623E-05   AT NODE        307   DOF  2
   INSTANCE: PART-1-1                                                                        
 LARGEST INCREMENT OF DISP.          1.00       AT NODE          1   DOF  1
   INSTANCE: PART-1-1                                                                        
 LARGEST CORRECTION TO DISP.        6.903E-03   AT NODE       1171   DOF  2
   INSTANCE: PART-1-1                                                                        
          FORCE     EQUILIBRIUM NOT ACHIEVED WITHIN TOLERANCE.

  NUMBER OF EQUATIONS =      3888     NUMBER OF RHS =    1
  NUMBER OF FLOATING PT. OPERATIONS =  1.46E+08

     CHECK POINT   START OF SOLVER    

     CHECK POINT  END OF SOLVER       

       ELAPSED USER TIME (SEC)      =  5.00000E-02
       ELAPSED SYSTEM TIME (SEC)    =   0.0000    
       ELAPSED TOTAL CPU TIME (SEC) =  5.00000E-02
       ELAPSED WALLCLOCK TIME (SEC) =          0
 ***************************************************
 deformation gradient
   1.20000000000000      -9.436895709313831E-016 -5.612914646957456E-016
  3.330669073875470E-016  0.833601756179039      -8.181254068304056E-016
  1.165734175856414E-015  1.221245327087672E-015  0.999700131287079     
 J
   1.00002214211199     
 C
   1.44000000000000      -3.869809947511875E-016  8.377578600810422E-016
 -3.869809947511875E-016  0.694891887904777       2.001521727680767E-016
  8.377578600810422E-016  2.001521727680767E-016  0.999400352495404     
 Chat
   1.43997874396407      -3.869752824720696E-016  8.377454938232802E-016
 -3.869752824720696E-016  0.694881630511070       2.001492182946209E-016
  8.377454938232802E-016  2.001492182946209E-016  0.999385600210818     
 I1hat, I2hat, I4ahat, I4shat
   3.13424597468595        3.13416349421816        1.43997874396407     
  0.694881630511070     
 S^hat
  2.900380958706430E-003  3.599721932602147E-019 -7.792877128455708E-019
  3.599721932602147E-019  4.098440606214481E-003 -1.861828296333948E-019
 -7.792877128455708E-019 -1.861828296333948E-019  2.849681927510585E-003
 S_iso
  6.150720812772344E-004 -9.126836582258243E-019  1.136372111982906E-018
 -9.126836582258243E-019 -6.372963184709873E-004  7.622445655093067E-019
  1.136372111982906E-018  7.622445655093067E-019 -4.431177638223973E-004
 S
  9.226082238225890E-004 -7.414186824279594E-019  8.785767049339980E-019
 -7.414186824279594E-019  4.847145471456593E-012  6.346117870229516E-019
  8.785767049339980E-019  6.346117870229516E-019 -4.098225773498110E-012
 sigma
  1.328526425923624E-003 -1.786404853413248E-018  4.325437689656980E-019
 -1.786404853413248E-018  3.368167489267815E-012  5.288431475434966E-019
  4.325437689656980E-019  5.288431475434967E-019 -4.095677595687760E-012
 Psi24a
  5.619026789573121E-005
 CChat
  4.481875758212449E-003  5.566000331195807E-019 -1.204958535411037E-018
  5.566000331195807E-019  8.192493354731437E-003 -2.878815949690141E-019
 -1.204958535411037E-018 -2.878815949690141E-019  6.273759753254939E-003
  5.566000331195807E-019 -9.301926568593735E-004 -1.496737769010159E-034
 -9.301926568593735E-004  7.865384404294124E-019 -3.575917706131067E-035
 -1.496737769010159E-034 -3.575917706131067E-035  5.482810619993828E-019
 -1.204958535411037E-018 -1.496737769010159E-034 -9.301926568593735E-004
 -1.496737769010159E-034 -1.702741916690995E-018  7.741344422457785E-035
 -9.301926568593735E-004  7.741344422457785E-035 -1.186949166635152E-018
  5.566000331195807E-019 -9.301926568593735E-004 -1.496737769010159E-034
 -9.301926568593735E-004  7.865384404294124E-019 -3.575917706131067E-035
 -1.496737769010159E-034 -3.575917706131067E-035  5.482810619993828E-019
  8.192493354731437E-003  7.865384404294124E-019 -1.702741916690995E-018
  7.865384404294124E-019  8.947979407100919E-003 -4.068090680235616E-019
 -1.702741916690995E-018 -4.068090680235616E-019  8.097443233530345E-003
 -2.878815949690141E-019 -3.575917706131067E-035  7.741344422457785E-035
 -3.575917706131067E-035 -4.068090680235616E-019 -9.301926568593735E-004
  7.741344422457785E-035 -9.301926568593735E-004 -2.835789026727864E-019
 -1.204958535411037E-018 -1.496737769010159E-034 -9.301926568593735E-004
 -1.496737769010159E-034 -1.702741916690995E-018  7.741344422457785E-035
 -9.301926568593735E-004  7.741344422457785E-035 -1.186949166635152E-018
 -2.878815949690141E-019 -3.575917706131067E-035  7.741344422457785E-035
 -3.575917706131067E-035 -4.068090680235616E-019 -9.301926568593735E-004
  7.741344422457785E-035 -9.301926568593735E-004 -2.835789026727864E-019
  6.273759753254939E-003  5.482810619993828E-019 -1.186949166635152E-018
  5.482810619993828E-019  8.097443233530345E-003 -2.835789026727864E-019
 -1.186949166635152E-018 -2.835789026727864E-019  4.348269921142169E-003
 dShat/dC
  1.093658217708864E-004 -2.447226057966018E-020  5.297890318294209E-020
 -2.447226057966018E-020  1.074542963155740E-003  1.265740745411768E-020
  5.297890318294209E-020  1.265740745411768E-020  9.370413104106466E-004
 -9.087735928260972E-019 -4.651031938812158E-004  2.901875611668268E-034
 -4.651031938812158E-004 -1.289526758260671E-018  6.932990264297956E-035
  2.901875611668268E-034  6.932990264297956E-035 -9.509577014786294E-019
  1.184352271077340E-018  1.789674972534142E-034 -4.651031938812158E-004
  1.789674972534142E-034  1.681642090161583E-018 -9.256458047291670E-035
 -4.651031938812158E-004 -9.256458047291670E-035  1.250593293943435E-018
 -9.087735928260972E-019 -4.651031938812158E-004  2.901875611668268E-034
 -4.651031938812158E-004 -1.289526758260671E-018  6.932990264297956E-035
  2.901875611668268E-034  6.932990264297956E-035 -9.509577014786294E-019
 -3.209431513168156E-004 -2.341578203586284E-019  5.069178000098249E-019
 -2.341578203586284E-019 -1.787839803026282E-003  1.211098145673797E-019
  5.069178000098249E-019  1.211098145673797E-019 -5.099626032717701E-004
  7.407098017233758E-019  1.077775450320692E-034 -2.333227903062991E-034
  1.077775450320692E-034  1.050676471531419E-018 -4.651031938812158E-004
 -2.333227903062991E-034 -4.651031938812158E-004  7.711984414470872E-019
  1.184352271077340E-018  1.789674972534142E-034 -4.651031938812158E-004
  1.789674972534142E-034  1.681642090161583E-018 -9.256458047291670E-035
 -4.651031938812158E-004 -9.256458047291670E-035  1.250593293943435E-018
  7.407098017233758E-019  1.077775450320692E-034 -2.333227903062991E-034
  1.077775450320692E-034  1.050676471531419E-018 -4.651031938812158E-004
 -2.333227903062991E-034 -4.651031938812158E-004  7.711984414470872E-019
  6.557305526183610E-005 -1.621150190166969E-019  3.509555592148590E-019
 -1.621150190166969E-019 -3.051698743417909E-004  8.384823475734884E-020
  3.509555592148590E-019  8.384823475734884E-020 -9.955678838666317E-004
 CCvol
   9.64527529043200       5.371394157146793E-015 -8.085253489283739E-015
  5.371394157146793E-015   19.9884496167993      -4.003132089235488E-015
 -8.085253489283739E-015 -4.003132089235488E-015   13.8981454787620     
  5.371394157146793E-015 -4.425668911931476E-004  8.863387394435500E-020
 -4.425668911931476E-004  1.113095104565575E-014  3.709863527471269E-019
  8.863387394435500E-020  3.709863527471269E-019  7.739791262759786E-015
 -8.085253489283741E-015  8.863387394435500E-020 -3.077206664751190E-004
  8.863387394435500E-020 -1.675552818797359E-014 -1.713677360297899E-019
 -3.077206664751190E-004 -1.713677360297899E-019 -1.164975076854611E-014
  5.371394157146793E-015 -4.425668911931476E-004  8.863387394435500E-020
 -4.425668911931476E-004  1.113095104565575E-014  3.709863527471269E-019
  8.863387394435500E-020  3.709863527471269E-019  7.739791262759786E-015
   19.9884496167993       1.113095104565575E-014 -1.675552818797359E-014
  1.113095104565575E-014   41.4195263414679      -8.295182377682353E-015
 -1.675552818797359E-014 -8.295182377682353E-015   28.8006376787058     
 -4.003132089235489E-015  3.709863527471269E-019 -1.713677360297899E-019
  3.709863527471269E-019 -8.295182377682353E-015 -6.376787057627774E-004
 -1.713677360297899E-019 -6.376787057627774E-004 -5.767713537972402E-015
 -8.085253489283741E-015  8.863387394435500E-020 -3.077206664751190E-004
  8.863387394435500E-020 -1.675552818797359E-014 -1.713677360297899E-019
 -3.077206664751190E-004 -1.713677360297899E-019 -1.164975076854611E-014
 -4.003132089235489E-015  3.709863527471269E-019 -1.713677360297899E-019
  3.709863527471269E-019 -8.295182377682353E-015 -6.376787057627774E-004
 -1.713677360297899E-019 -6.376787057627774E-004 -5.767713537972402E-015
   13.8981454787620       7.739791262759787E-015 -1.164975076854611E-014
  7.739791262759787E-015   28.8006376787058      -5.767713537972401E-015
 -1.164975076854611E-014 -5.767713537972401E-015   20.0244508658905     
 CCiso
  9.079185309276341E-004  9.159792913467601E-019 -1.236562218090763E-018
  9.159792913467601E-019 -2.098972444225919E-003  5.822745995301842E-019
 -1.236562218090763E-018  5.822745995301842E-019 -1.079635469417368E-003
  9.159792913467597E-019  2.350479681933520E-003 -6.570276817593446E-019
  2.350479681933520E-003  3.578445091738501E-018 -2.750058103653553E-018
 -6.570276817593446E-019 -2.750058103653553E-018 -1.611898336319114E-019
 -1.236562218090764E-018 -6.570276817593446E-019  1.350887782434608E-003
 -6.570276817593446E-019  6.503832296952042E-019  1.270319589090419E-018
  1.350887782434608E-003  1.270319589090419E-018 -3.209399151456357E-018
  9.159792913467597E-019  2.350479681933520E-003 -6.570276817593446E-019
  2.350479681933520E-003  3.578445091738501E-018 -2.750058103653553E-018
 -6.570276817593446E-019 -2.750058103653553E-018 -1.611898336319114E-019
 -2.098972444225918E-003  3.578445091738499E-018  6.503832296952042E-019
  3.578445091738499E-018  8.835960067640113E-003 -2.852315623027722E-018
  6.503832296952042E-019 -2.852315623027722E-018 -1.844029613337749E-003
  5.822745995301839E-019 -2.750058103653553E-018  1.270319589090419E-018
 -2.750058103653553E-018 -2.852315623027722E-018  3.796810046377610E-003
  1.270319589090419E-018  3.796810046377610E-003 -1.901933804260025E-018
 -1.236562218090764E-018 -6.570276817593446E-019  1.350887782434608E-003
 -6.570276817593446E-019  6.503832296952042E-019  1.270319589090419E-018
  1.350887782434608E-003  1.270319589090419E-018 -3.209399151456357E-018
  5.822745995301839E-019 -2.750058103653553E-018  1.270319589090419E-018
 -2.750058103653553E-018 -2.852315623027722E-018  3.796810046377610E-003
  1.270319589090419E-018  3.796810046377610E-003 -1.901933804260025E-018
 -1.079635469417368E-003 -1.611898336319118E-019 -3.209399151456356E-018
 -1.611898336319118E-019 -1.844029613337750E-003 -1.901933804260025E-018
 -3.209399151456356E-018 -1.901933804260025E-018  3.724545330487885E-003
 CC_ref
   9.64618320896293       5.372310136438139E-015 -8.086490051501830E-015
  5.372310136438139E-015   19.9863506443550      -4.002549814635958E-015
 -8.086490051501830E-015 -4.002549814635958E-015   13.8970658432926     
  5.372310136438139E-015  1.907912790740372E-003 -5.683938078149896E-019
  1.907912790740372E-003  1.113452949074749E-014 -2.379071750906426E-018
 -5.683938078149896E-019 -2.379071750906426E-018  7.739630072926154E-015
 -8.086490051501831E-015 -5.683938078149896E-019  1.043167115959489E-003
 -5.683938078149896E-019 -1.675487780474390E-014  1.098951853060629E-018
  1.043167115959489E-003  1.098951853060629E-018 -1.165296016769757E-014
  5.372310136438139E-015  1.907912790740372E-003 -5.683938078149896E-019
  1.907912790740372E-003  1.113452949074749E-014 -2.379071750906426E-018
 -5.683938078149896E-019 -2.379071750906426E-018  7.739630072926154E-015
   19.9863506443550       1.113452949074749E-014 -1.675487780474390E-014
  1.113452949074749E-014   41.4283623015356      -8.298034693305381E-015
 -1.675487780474390E-014 -8.298034693305381E-015   28.7987936490924     
 -4.002549814635958E-015 -2.379071750906426E-018  1.098951853060629E-018
 -2.379071750906426E-018 -8.298034693305381E-015  3.159131340614833E-003
  1.098951853060629E-018  3.159131340614833E-003 -5.769615471776662E-015
 -8.086490051501831E-015 -5.683938078149896E-019  1.043167115959489E-003
 -5.683938078149896E-019 -1.675487780474390E-014  1.098951853060629E-018
  1.043167115959489E-003  1.098951853060629E-018 -1.165296016769757E-014
 -4.002549814635958E-015 -2.379071750906426E-018  1.098951853060629E-018
 -2.379071750906426E-018 -8.298034693305381E-015  3.159131340614833E-003
  1.098951853060629E-018  3.159131340614833E-003 -5.769615471776662E-015
   13.8970658432926       7.739630072926156E-015 -1.165296016769757E-014
  7.739630072926156E-015   28.7987936490924      -5.769615471776662E-015
 -1.165296016769757E-014 -5.769615471776662E-015   20.0281754112210     
 DDSDDE
   20.0045396710324        19.9987854061330        19.9993319760631     
 -9.072301483652224E-019  1.380113941440083E-019  8.619865535872656E-019
   19.9987854061330        20.0042665674198        19.9996050800046     
  3.581909439972297E-019  3.125866640081244E-020 -4.324980975904651E-019
   19.9993319760631        19.9996050800046        20.0037199974643     
  5.490396383685891E-019 -1.692701742984151E-019 -4.294886148262381E-019
 -9.072301483649285E-019  3.581909440003805E-019  5.490396383654388E-019
  2.573363037549777E-003 -4.573912074742817E-019 -1.016349259061490E-019
  1.380113941476763E-019  3.125866640081583E-020 -1.692701742984151E-019
 -4.573912074742810E-019  2.165489850683792E-003 -9.858456525762115E-020
  8.619865535777991E-019 -4.324980975910285E-019 -4.294886148325490E-019
 -1.016349259061496E-019 -9.858456525762134E-020  2.193889784674277E-003

               CONVERGENCE CHECKS FOR EQUILIBRIUM ITERATION     2


 AVERAGE FORCE                      2.714E-03   TIME AVG. FORCE       1.593E-03
 LARGEST RESIDUAL FORCE            -4.003E-11   AT NODE        109   DOF  2
   INSTANCE: PART-1-1                                                                        
 LARGEST INCREMENT OF DISP.          1.00       AT NODE          1   DOF  1
   INSTANCE: PART-1-1                                                                        
 LARGEST CORRECTION TO DISP.       -2.980E-06   AT NODE        155   DOF  3
   INSTANCE: PART-1-1                                                                        
          THE FORCE     EQUILIBRIUM EQUATIONS HAVE CONVERGED

 ITERATION SUMMARY FOR THE INCREMENT:   2 TOTAL ITERATIONS, OF WHICH
   0 ARE SEVERE DISCONTINUITY ITERATIONS AND  2 ARE EQUILIBRIUM ITERATIONS.

 TIME INCREMENT COMPLETED  0.100    ,  FRACTION OF STEP COMPLETED   1.00    
 STEP TIME COMPLETED        1.00    ,  TOTAL TIME COMPLETED         1.00    


          THE ANALYSIS HAS BEEN COMPLETED



     ANALYSIS SUMMARY:
     TOTAL OF         10  INCREMENTS
                       0  CUTBACKS IN AUTOMATIC INCREMENTATION
                      29  ITERATIONS INCLUDING CONTACT ITERATIONS IF PRESENT
                      29  PASSES THROUGH THE EQUATION SOLVER OF WHICH 
                      29  INVOLVE MATRIX DECOMPOSITION, INCLUDING
                       0  DECOMPOSITION(S) OF THE MASS MATRIX
                       1  REORDERING OF EQUATIONS TO MINIMIZE WAVEFRONT
                       0  ADDITIONAL RESIDUAL EVALUATIONS FOR LINE SEARCHES
                       0  ADDITIONAL OPERATOR EVALUATIONS FOR LINE SEARCHES
                       1  WARNING MESSAGES DURING USER INPUT PROCESSING
                       3  WARNING MESSAGES DURING ANALYSIS
                       0  ANALYSIS WARNINGS ARE NUMERICAL PROBLEM MESSAGES
                       3  ANALYSIS WARNINGS ARE NEGATIVE EIGENVALUE MESSAGES
                       0  ERROR MESSAGES



     JOB TIME SUMMARY
       USER TIME (SEC)      =   24.380    
       SYSTEM TIME (SEC)    =  0.48000    
       TOTAL CPU TIME (SEC) =   24.860    
       WALLCLOCK TIME (SEC) =         26
